
---------- Begin Simulation Statistics ----------
simSeconds                                   0.003268                       # Number of seconds simulated (Second)
simTicks                                   3268091750                       # Number of ticks simulated (Tick)
finalTick                                  3268091750                       # Number of ticks from beginning of simulation (restored from checkpoints and never reset) (Tick)
simFreq                                  1000000000000                       # The number of ticks per simulated second ((Tick/Second))
hostSeconds                                     39.29                       # Real time elapsed on the host (Second)
hostTickRate                                 83186215                       # The number of ticks simulated per host second (ticks/s) ((Tick/Second))
hostMemory                                    2240732                       # Number of bytes of host memory used (Byte)
simInsts                                     13993456                       # Number of instructions simulated (Count)
simOps                                       13994437                       # Number of ops (including micro ops) simulated (Count)
hostInstRate                                   356189                       # Simulator instruction rate (inst/s) ((Count/Second))
hostOpRate                                     356214                       # Simulator op (including micro ops) rate (op/s) ((Count/Second))
system.clk_domain.clock                          1000                       # Clock period in ticks (Tick)
system.cpu_cluster.clk_domain.clock               250                       # Clock period in ticks (Tick)
system.cpu_cluster.cpus.numCycles            13072368                       # Number of cpu cycles simulated (Cycle)
system.cpu_cluster.cpus.cpi                  0.934176                       # CPI: cycles per instruction (core level) ((Cycle/Count))
system.cpu_cluster.cpus.ipc                  1.070462                       # IPC: instructions per cycle (core level) ((Count/Cycle))
system.cpu_cluster.cpus.numWorkItemsStarted            0                       # Number of work items this cpu started (Count)
system.cpu_cluster.cpus.numWorkItemsCompleted            0                       # Number of work items this cpu completed (Count)
system.cpu_cluster.cpus.instsAdded           14001777                       # Number of instructions added to the IQ (excludes non-spec) (Count)
system.cpu_cluster.cpus.nonSpecInstsAdded           24                       # Number of non-speculative instructions added to the IQ (Count)
system.cpu_cluster.cpus.instsIssued          13999320                       # Number of instructions issued (Count)
system.cpu_cluster.cpus.squashedInstsIssued         1082                       # Number of squashed instructions issued (Count)
system.cpu_cluster.cpus.squashedInstsExamined         7359                       # Number of squashed instructions iterated over during squash; mainly for profiling (Count)
system.cpu_cluster.cpus.squashedOperandsExamined         5308                       # Number of squashed operands that are examined and possibly removed from graph (Count)
system.cpu_cluster.cpus.squashedNonSpecRemoved            7                       # Number of squashed non-spec instructions that were removed (Count)
system.cpu_cluster.cpus.numIssuedDist::samples     13023078                       # Number of insts issued each cycle (Count)
system.cpu_cluster.cpus.numIssuedDist::mean     1.074962                       # Number of insts issued each cycle (Count)
system.cpu_cluster.cpus.numIssuedDist::stdev     0.829187                       # Number of insts issued each cycle (Count)
system.cpu_cluster.cpus.numIssuedDist::underflows            0      0.00%      0.00% # Number of insts issued each cycle (Count)
system.cpu_cluster.cpus.numIssuedDist::0      4024561     30.90%     30.90% # Number of insts issued each cycle (Count)
system.cpu_cluster.cpus.numIssuedDist::1      3998626     30.70%     61.61% # Number of insts issued each cycle (Count)
system.cpu_cluster.cpus.numIssuedDist::2      4998993     38.39%     99.99% # Number of insts issued each cycle (Count)
system.cpu_cluster.cpus.numIssuedDist::3          884      0.01%    100.00% # Number of insts issued each cycle (Count)
system.cpu_cluster.cpus.numIssuedDist::4           14      0.00%    100.00% # Number of insts issued each cycle (Count)
system.cpu_cluster.cpus.numIssuedDist::5            0      0.00%    100.00% # Number of insts issued each cycle (Count)
system.cpu_cluster.cpus.numIssuedDist::6            0      0.00%    100.00% # Number of insts issued each cycle (Count)
system.cpu_cluster.cpus.numIssuedDist::7            0      0.00%    100.00% # Number of insts issued each cycle (Count)
system.cpu_cluster.cpus.numIssuedDist::8            0      0.00%    100.00% # Number of insts issued each cycle (Count)
system.cpu_cluster.cpus.numIssuedDist::overflows            0      0.00%    100.00% # Number of insts issued each cycle (Count)
system.cpu_cluster.cpus.numIssuedDist::min_value            0                       # Number of insts issued each cycle (Count)
system.cpu_cluster.cpus.numIssuedDist::max_value            4                       # Number of insts issued each cycle (Count)
system.cpu_cluster.cpus.numIssuedDist::total     13023078                       # Number of insts issued each cycle (Count)
system.cpu_cluster.cpus.statFuBusy::No_OpClass            0      0.00%      0.00% # attempts to use FU when none available (Count)
system.cpu_cluster.cpus.statFuBusy::IntAlu       998592     33.33%     33.33% # attempts to use FU when none available (Count)
system.cpu_cluster.cpus.statFuBusy::IntMult            0      0.00%     33.33% # attempts to use FU when none available (Count)
system.cpu_cluster.cpus.statFuBusy::IntDiv            0      0.00%     33.33% # attempts to use FU when none available (Count)
system.cpu_cluster.cpus.statFuBusy::FloatAdd            0      0.00%     33.33% # attempts to use FU when none available (Count)
system.cpu_cluster.cpus.statFuBusy::FloatCmp            0      0.00%     33.33% # attempts to use FU when none available (Count)
system.cpu_cluster.cpus.statFuBusy::FloatCvt            0      0.00%     33.33% # attempts to use FU when none available (Count)
system.cpu_cluster.cpus.statFuBusy::FloatMult            0      0.00%     33.33% # attempts to use FU when none available (Count)
system.cpu_cluster.cpus.statFuBusy::FloatMultAcc            0      0.00%     33.33% # attempts to use FU when none available (Count)
system.cpu_cluster.cpus.statFuBusy::FloatDiv            0      0.00%     33.33% # attempts to use FU when none available (Count)
system.cpu_cluster.cpus.statFuBusy::FloatMisc            0      0.00%     33.33% # attempts to use FU when none available (Count)
system.cpu_cluster.cpus.statFuBusy::FloatSqrt            0      0.00%     33.33% # attempts to use FU when none available (Count)
system.cpu_cluster.cpus.statFuBusy::SimdAdd            0      0.00%     33.33% # attempts to use FU when none available (Count)
system.cpu_cluster.cpus.statFuBusy::SimdAddAcc            0      0.00%     33.33% # attempts to use FU when none available (Count)
system.cpu_cluster.cpus.statFuBusy::SimdAlu            2      0.00%     33.33% # attempts to use FU when none available (Count)
system.cpu_cluster.cpus.statFuBusy::SimdCmp            2      0.00%     33.33% # attempts to use FU when none available (Count)
system.cpu_cluster.cpus.statFuBusy::SimdCvt            0      0.00%     33.33% # attempts to use FU when none available (Count)
system.cpu_cluster.cpus.statFuBusy::SimdMisc            0      0.00%     33.33% # attempts to use FU when none available (Count)
system.cpu_cluster.cpus.statFuBusy::SimdMult            0      0.00%     33.33% # attempts to use FU when none available (Count)
system.cpu_cluster.cpus.statFuBusy::SimdMultAcc            0      0.00%     33.33% # attempts to use FU when none available (Count)
system.cpu_cluster.cpus.statFuBusy::SimdMatMultAcc            0      0.00%     33.33% # attempts to use FU when none available (Count)
system.cpu_cluster.cpus.statFuBusy::SimdShift            0      0.00%     33.33% # attempts to use FU when none available (Count)
system.cpu_cluster.cpus.statFuBusy::SimdShiftAcc            0      0.00%     33.33% # attempts to use FU when none available (Count)
system.cpu_cluster.cpus.statFuBusy::SimdDiv            0      0.00%     33.33% # attempts to use FU when none available (Count)
system.cpu_cluster.cpus.statFuBusy::SimdSqrt            0      0.00%     33.33% # attempts to use FU when none available (Count)
system.cpu_cluster.cpus.statFuBusy::SimdFloatAdd            0      0.00%     33.33% # attempts to use FU when none available (Count)
system.cpu_cluster.cpus.statFuBusy::SimdFloatAlu            0      0.00%     33.33% # attempts to use FU when none available (Count)
system.cpu_cluster.cpus.statFuBusy::SimdFloatCmp            0      0.00%     33.33% # attempts to use FU when none available (Count)
system.cpu_cluster.cpus.statFuBusy::SimdFloatCvt            0      0.00%     33.33% # attempts to use FU when none available (Count)
system.cpu_cluster.cpus.statFuBusy::SimdFloatDiv            0      0.00%     33.33% # attempts to use FU when none available (Count)
system.cpu_cluster.cpus.statFuBusy::SimdFloatMisc            0      0.00%     33.33% # attempts to use FU when none available (Count)
system.cpu_cluster.cpus.statFuBusy::SimdFloatMult            0      0.00%     33.33% # attempts to use FU when none available (Count)
system.cpu_cluster.cpus.statFuBusy::SimdFloatMultAcc            0      0.00%     33.33% # attempts to use FU when none available (Count)
system.cpu_cluster.cpus.statFuBusy::SimdFloatMatMultAcc            0      0.00%     33.33% # attempts to use FU when none available (Count)
system.cpu_cluster.cpus.statFuBusy::SimdFloatSqrt            0      0.00%     33.33% # attempts to use FU when none available (Count)
system.cpu_cluster.cpus.statFuBusy::SimdReduceAdd            0      0.00%     33.33% # attempts to use FU when none available (Count)
system.cpu_cluster.cpus.statFuBusy::SimdReduceAlu            0      0.00%     33.33% # attempts to use FU when none available (Count)
system.cpu_cluster.cpus.statFuBusy::SimdReduceCmp            0      0.00%     33.33% # attempts to use FU when none available (Count)
system.cpu_cluster.cpus.statFuBusy::SimdFloatReduceAdd            0      0.00%     33.33% # attempts to use FU when none available (Count)
system.cpu_cluster.cpus.statFuBusy::SimdFloatReduceCmp            0      0.00%     33.33% # attempts to use FU when none available (Count)
system.cpu_cluster.cpus.statFuBusy::SimdAes            0      0.00%     33.33% # attempts to use FU when none available (Count)
system.cpu_cluster.cpus.statFuBusy::SimdAesMix            0      0.00%     33.33% # attempts to use FU when none available (Count)
system.cpu_cluster.cpus.statFuBusy::SimdSha1Hash            0      0.00%     33.33% # attempts to use FU when none available (Count)
system.cpu_cluster.cpus.statFuBusy::SimdSha1Hash2            0      0.00%     33.33% # attempts to use FU when none available (Count)
system.cpu_cluster.cpus.statFuBusy::SimdSha256Hash            0      0.00%     33.33% # attempts to use FU when none available (Count)
system.cpu_cluster.cpus.statFuBusy::SimdSha256Hash2            0      0.00%     33.33% # attempts to use FU when none available (Count)
system.cpu_cluster.cpus.statFuBusy::SimdShaSigma2            0      0.00%     33.33% # attempts to use FU when none available (Count)
system.cpu_cluster.cpus.statFuBusy::SimdShaSigma3            0      0.00%     33.33% # attempts to use FU when none available (Count)
system.cpu_cluster.cpus.statFuBusy::SimdPredAlu            0      0.00%     33.33% # attempts to use FU when none available (Count)
system.cpu_cluster.cpus.statFuBusy::Matrix            0      0.00%     33.33% # attempts to use FU when none available (Count)
system.cpu_cluster.cpus.statFuBusy::MatrixMov            0      0.00%     33.33% # attempts to use FU when none available (Count)
system.cpu_cluster.cpus.statFuBusy::MatrixOP            0      0.00%     33.33% # attempts to use FU when none available (Count)
system.cpu_cluster.cpus.statFuBusy::MemRead       999212     33.35%     66.68% # attempts to use FU when none available (Count)
system.cpu_cluster.cpus.statFuBusy::MemWrite       998447     33.32%    100.00% # attempts to use FU when none available (Count)
system.cpu_cluster.cpus.statFuBusy::FloatMemRead            0      0.00%    100.00% # attempts to use FU when none available (Count)
system.cpu_cluster.cpus.statFuBusy::FloatMemWrite            0      0.00%    100.00% # attempts to use FU when none available (Count)
system.cpu_cluster.cpus.statFuBusy::IprAccess            0      0.00%    100.00% # attempts to use FU when none available (Count)
system.cpu_cluster.cpus.statFuBusy::InstPrefetch            0      0.00%    100.00% # attempts to use FU when none available (Count)
system.cpu_cluster.cpus.statFuBusy::VectorUnitStrideLoad            0      0.00%    100.00% # attempts to use FU when none available (Count)
system.cpu_cluster.cpus.statFuBusy::VectorUnitStrideStore            0      0.00%    100.00% # attempts to use FU when none available (Count)
system.cpu_cluster.cpus.statFuBusy::VectorUnitStrideMaskLoad            0      0.00%    100.00% # attempts to use FU when none available (Count)
system.cpu_cluster.cpus.statFuBusy::VectorUnitStrideMaskStore            0      0.00%    100.00% # attempts to use FU when none available (Count)
system.cpu_cluster.cpus.statFuBusy::VectorStridedLoad            0      0.00%    100.00% # attempts to use FU when none available (Count)
system.cpu_cluster.cpus.statFuBusy::VectorStridedStore            0      0.00%    100.00% # attempts to use FU when none available (Count)
system.cpu_cluster.cpus.statFuBusy::VectorIndexedLoad            0      0.00%    100.00% # attempts to use FU when none available (Count)
system.cpu_cluster.cpus.statFuBusy::VectorIndexedStore            0      0.00%    100.00% # attempts to use FU when none available (Count)
system.cpu_cluster.cpus.statFuBusy::VectorUnitStrideFaultOnlyFirstLoad            0      0.00%    100.00% # attempts to use FU when none available (Count)
system.cpu_cluster.cpus.statFuBusy::VectorWholeRegisterLoad            0      0.00%    100.00% # attempts to use FU when none available (Count)
system.cpu_cluster.cpus.statFuBusy::VectorWholeRegisterStore            0      0.00%    100.00% # attempts to use FU when none available (Count)
system.cpu_cluster.cpus.statFuBusy::VectorIntegerArith            0      0.00%    100.00% # attempts to use FU when none available (Count)
system.cpu_cluster.cpus.statFuBusy::VectorFloatArith            0      0.00%    100.00% # attempts to use FU when none available (Count)
system.cpu_cluster.cpus.statFuBusy::VectorFloatConvert            0      0.00%    100.00% # attempts to use FU when none available (Count)
system.cpu_cluster.cpus.statFuBusy::VectorIntegerReduce            0      0.00%    100.00% # attempts to use FU when none available (Count)
system.cpu_cluster.cpus.statFuBusy::VectorFloatReduce            0      0.00%    100.00% # attempts to use FU when none available (Count)
system.cpu_cluster.cpus.statFuBusy::VectorMisc            0      0.00%    100.00% # attempts to use FU when none available (Count)
system.cpu_cluster.cpus.statFuBusy::VectorIntegerExtension            0      0.00%    100.00% # attempts to use FU when none available (Count)
system.cpu_cluster.cpus.statFuBusy::VectorConfig            0      0.00%    100.00% # attempts to use FU when none available (Count)
system.cpu_cluster.cpus.statIssuedInstType_0::No_OpClass            6      0.00%      0.00% # Number of instructions issued per FU type, per thread (Count)
system.cpu_cluster.cpus.statIssuedInstType_0::IntAlu     10001974     71.45%     71.45% # Number of instructions issued per FU type, per thread (Count)
system.cpu_cluster.cpus.statIssuedInstType_0::IntMult         1004      0.01%     71.45% # Number of instructions issued per FU type, per thread (Count)
system.cpu_cluster.cpus.statIssuedInstType_0::IntDiv            2      0.00%     71.45% # Number of instructions issued per FU type, per thread (Count)
system.cpu_cluster.cpus.statIssuedInstType_0::FloatAdd            0      0.00%     71.45% # Number of instructions issued per FU type, per thread (Count)
system.cpu_cluster.cpus.statIssuedInstType_0::FloatCmp            0      0.00%     71.45% # Number of instructions issued per FU type, per thread (Count)
system.cpu_cluster.cpus.statIssuedInstType_0::FloatCvt            0      0.00%     71.45% # Number of instructions issued per FU type, per thread (Count)
system.cpu_cluster.cpus.statIssuedInstType_0::FloatMult            0      0.00%     71.45% # Number of instructions issued per FU type, per thread (Count)
system.cpu_cluster.cpus.statIssuedInstType_0::FloatMultAcc            0      0.00%     71.45% # Number of instructions issued per FU type, per thread (Count)
system.cpu_cluster.cpus.statIssuedInstType_0::FloatDiv            0      0.00%     71.45% # Number of instructions issued per FU type, per thread (Count)
system.cpu_cluster.cpus.statIssuedInstType_0::FloatMisc            0      0.00%     71.45% # Number of instructions issued per FU type, per thread (Count)
system.cpu_cluster.cpus.statIssuedInstType_0::FloatSqrt            0      0.00%     71.45% # Number of instructions issued per FU type, per thread (Count)
system.cpu_cluster.cpus.statIssuedInstType_0::SimdAdd           11      0.00%     71.45% # Number of instructions issued per FU type, per thread (Count)
system.cpu_cluster.cpus.statIssuedInstType_0::SimdAddAcc            0      0.00%     71.45% # Number of instructions issued per FU type, per thread (Count)
system.cpu_cluster.cpus.statIssuedInstType_0::SimdAlu            8      0.00%     71.45% # Number of instructions issued per FU type, per thread (Count)
system.cpu_cluster.cpus.statIssuedInstType_0::SimdCmp            8      0.00%     71.45% # Number of instructions issued per FU type, per thread (Count)
system.cpu_cluster.cpus.statIssuedInstType_0::SimdCvt            0      0.00%     71.45% # Number of instructions issued per FU type, per thread (Count)
system.cpu_cluster.cpus.statIssuedInstType_0::SimdMisc            9      0.00%     71.45% # Number of instructions issued per FU type, per thread (Count)
system.cpu_cluster.cpus.statIssuedInstType_0::SimdMult            0      0.00%     71.45% # Number of instructions issued per FU type, per thread (Count)
system.cpu_cluster.cpus.statIssuedInstType_0::SimdMultAcc            0      0.00%     71.45% # Number of instructions issued per FU type, per thread (Count)
system.cpu_cluster.cpus.statIssuedInstType_0::SimdMatMultAcc            0      0.00%     71.45% # Number of instructions issued per FU type, per thread (Count)
system.cpu_cluster.cpus.statIssuedInstType_0::SimdShift            0      0.00%     71.45% # Number of instructions issued per FU type, per thread (Count)
system.cpu_cluster.cpus.statIssuedInstType_0::SimdShiftAcc            0      0.00%     71.45% # Number of instructions issued per FU type, per thread (Count)
system.cpu_cluster.cpus.statIssuedInstType_0::SimdDiv            0      0.00%     71.45% # Number of instructions issued per FU type, per thread (Count)
system.cpu_cluster.cpus.statIssuedInstType_0::SimdSqrt            0      0.00%     71.45% # Number of instructions issued per FU type, per thread (Count)
system.cpu_cluster.cpus.statIssuedInstType_0::SimdFloatAdd            0      0.00%     71.45% # Number of instructions issued per FU type, per thread (Count)
system.cpu_cluster.cpus.statIssuedInstType_0::SimdFloatAlu            0      0.00%     71.45% # Number of instructions issued per FU type, per thread (Count)
system.cpu_cluster.cpus.statIssuedInstType_0::SimdFloatCmp            0      0.00%     71.45% # Number of instructions issued per FU type, per thread (Count)
system.cpu_cluster.cpus.statIssuedInstType_0::SimdFloatCvt            0      0.00%     71.45% # Number of instructions issued per FU type, per thread (Count)
system.cpu_cluster.cpus.statIssuedInstType_0::SimdFloatDiv            0      0.00%     71.45% # Number of instructions issued per FU type, per thread (Count)
system.cpu_cluster.cpus.statIssuedInstType_0::SimdFloatMisc            0      0.00%     71.45% # Number of instructions issued per FU type, per thread (Count)
system.cpu_cluster.cpus.statIssuedInstType_0::SimdFloatMult            0      0.00%     71.45% # Number of instructions issued per FU type, per thread (Count)
system.cpu_cluster.cpus.statIssuedInstType_0::SimdFloatMultAcc            0      0.00%     71.45% # Number of instructions issued per FU type, per thread (Count)
system.cpu_cluster.cpus.statIssuedInstType_0::SimdFloatMatMultAcc            0      0.00%     71.45% # Number of instructions issued per FU type, per thread (Count)
system.cpu_cluster.cpus.statIssuedInstType_0::SimdFloatSqrt            0      0.00%     71.45% # Number of instructions issued per FU type, per thread (Count)
system.cpu_cluster.cpus.statIssuedInstType_0::SimdReduceAdd            0      0.00%     71.45% # Number of instructions issued per FU type, per thread (Count)
system.cpu_cluster.cpus.statIssuedInstType_0::SimdReduceAlu            0      0.00%     71.45% # Number of instructions issued per FU type, per thread (Count)
system.cpu_cluster.cpus.statIssuedInstType_0::SimdReduceCmp            0      0.00%     71.45% # Number of instructions issued per FU type, per thread (Count)
system.cpu_cluster.cpus.statIssuedInstType_0::SimdFloatReduceAdd            0      0.00%     71.45% # Number of instructions issued per FU type, per thread (Count)
system.cpu_cluster.cpus.statIssuedInstType_0::SimdFloatReduceCmp            0      0.00%     71.45% # Number of instructions issued per FU type, per thread (Count)
system.cpu_cluster.cpus.statIssuedInstType_0::SimdAes            0      0.00%     71.45% # Number of instructions issued per FU type, per thread (Count)
system.cpu_cluster.cpus.statIssuedInstType_0::SimdAesMix            0      0.00%     71.45% # Number of instructions issued per FU type, per thread (Count)
system.cpu_cluster.cpus.statIssuedInstType_0::SimdSha1Hash            0      0.00%     71.45% # Number of instructions issued per FU type, per thread (Count)
system.cpu_cluster.cpus.statIssuedInstType_0::SimdSha1Hash2            0      0.00%     71.45% # Number of instructions issued per FU type, per thread (Count)
system.cpu_cluster.cpus.statIssuedInstType_0::SimdSha256Hash            0      0.00%     71.45% # Number of instructions issued per FU type, per thread (Count)
system.cpu_cluster.cpus.statIssuedInstType_0::SimdSha256Hash2            0      0.00%     71.45% # Number of instructions issued per FU type, per thread (Count)
system.cpu_cluster.cpus.statIssuedInstType_0::SimdShaSigma2            0      0.00%     71.45% # Number of instructions issued per FU type, per thread (Count)
system.cpu_cluster.cpus.statIssuedInstType_0::SimdShaSigma3            0      0.00%     71.45% # Number of instructions issued per FU type, per thread (Count)
system.cpu_cluster.cpus.statIssuedInstType_0::SimdPredAlu            0      0.00%     71.45% # Number of instructions issued per FU type, per thread (Count)
system.cpu_cluster.cpus.statIssuedInstType_0::Matrix            0      0.00%     71.45% # Number of instructions issued per FU type, per thread (Count)
system.cpu_cluster.cpus.statIssuedInstType_0::MatrixMov            0      0.00%     71.45% # Number of instructions issued per FU type, per thread (Count)
system.cpu_cluster.cpus.statIssuedInstType_0::MatrixOP            0      0.00%     71.45% # Number of instructions issued per FU type, per thread (Count)
system.cpu_cluster.cpus.statIssuedInstType_0::MemRead      1998115     14.27%     85.73% # Number of instructions issued per FU type, per thread (Count)
system.cpu_cluster.cpus.statIssuedInstType_0::MemWrite      1998183     14.27%    100.00% # Number of instructions issued per FU type, per thread (Count)
system.cpu_cluster.cpus.statIssuedInstType_0::FloatMemRead            0      0.00%    100.00% # Number of instructions issued per FU type, per thread (Count)
system.cpu_cluster.cpus.statIssuedInstType_0::FloatMemWrite            0      0.00%    100.00% # Number of instructions issued per FU type, per thread (Count)
system.cpu_cluster.cpus.statIssuedInstType_0::IprAccess            0      0.00%    100.00% # Number of instructions issued per FU type, per thread (Count)
system.cpu_cluster.cpus.statIssuedInstType_0::InstPrefetch            0      0.00%    100.00% # Number of instructions issued per FU type, per thread (Count)
system.cpu_cluster.cpus.statIssuedInstType_0::VectorUnitStrideLoad            0      0.00%    100.00% # Number of instructions issued per FU type, per thread (Count)
system.cpu_cluster.cpus.statIssuedInstType_0::VectorUnitStrideStore            0      0.00%    100.00% # Number of instructions issued per FU type, per thread (Count)
system.cpu_cluster.cpus.statIssuedInstType_0::VectorUnitStrideMaskLoad            0      0.00%    100.00% # Number of instructions issued per FU type, per thread (Count)
system.cpu_cluster.cpus.statIssuedInstType_0::VectorUnitStrideMaskStore            0      0.00%    100.00% # Number of instructions issued per FU type, per thread (Count)
system.cpu_cluster.cpus.statIssuedInstType_0::VectorStridedLoad            0      0.00%    100.00% # Number of instructions issued per FU type, per thread (Count)
system.cpu_cluster.cpus.statIssuedInstType_0::VectorStridedStore            0      0.00%    100.00% # Number of instructions issued per FU type, per thread (Count)
system.cpu_cluster.cpus.statIssuedInstType_0::VectorIndexedLoad            0      0.00%    100.00% # Number of instructions issued per FU type, per thread (Count)
system.cpu_cluster.cpus.statIssuedInstType_0::VectorIndexedStore            0      0.00%    100.00% # Number of instructions issued per FU type, per thread (Count)
system.cpu_cluster.cpus.statIssuedInstType_0::VectorUnitStrideFaultOnlyFirstLoad            0      0.00%    100.00% # Number of instructions issued per FU type, per thread (Count)
system.cpu_cluster.cpus.statIssuedInstType_0::VectorWholeRegisterLoad            0      0.00%    100.00% # Number of instructions issued per FU type, per thread (Count)
system.cpu_cluster.cpus.statIssuedInstType_0::VectorWholeRegisterStore            0      0.00%    100.00% # Number of instructions issued per FU type, per thread (Count)
system.cpu_cluster.cpus.statIssuedInstType_0::VectorIntegerArith            0      0.00%    100.00% # Number of instructions issued per FU type, per thread (Count)
system.cpu_cluster.cpus.statIssuedInstType_0::VectorFloatArith            0      0.00%    100.00% # Number of instructions issued per FU type, per thread (Count)
system.cpu_cluster.cpus.statIssuedInstType_0::VectorFloatConvert            0      0.00%    100.00% # Number of instructions issued per FU type, per thread (Count)
system.cpu_cluster.cpus.statIssuedInstType_0::VectorIntegerReduce            0      0.00%    100.00% # Number of instructions issued per FU type, per thread (Count)
system.cpu_cluster.cpus.statIssuedInstType_0::VectorFloatReduce            0      0.00%    100.00% # Number of instructions issued per FU type, per thread (Count)
system.cpu_cluster.cpus.statIssuedInstType_0::VectorMisc            0      0.00%    100.00% # Number of instructions issued per FU type, per thread (Count)
system.cpu_cluster.cpus.statIssuedInstType_0::VectorIntegerExtension            0      0.00%    100.00% # Number of instructions issued per FU type, per thread (Count)
system.cpu_cluster.cpus.statIssuedInstType_0::VectorConfig            0      0.00%    100.00% # Number of instructions issued per FU type, per thread (Count)
system.cpu_cluster.cpus.statIssuedInstType_0::total     13999320                       # Number of instructions issued per FU type, per thread (Count)
system.cpu_cluster.cpus.issueRate            1.070909                       # Inst issue rate ((Count/Cycle))
system.cpu_cluster.cpus.fuBusy                2996255                       # FU busy when requested (Count)
system.cpu_cluster.cpus.fuBusyRate           0.214029                       # FU busy rate (busy events/executed inst) ((Count/Count))
system.cpu_cluster.cpus.intInstQueueReads     44018859                       # Number of integer instruction queue reads (Count)
system.cpu_cluster.cpus.intInstQueueWrites     14009063                       # Number of integer instruction queue writes (Count)
system.cpu_cluster.cpus.intInstQueueWakeupAccesses     13997597                       # Number of integer instruction queue wakeup accesses (Count)
system.cpu_cluster.cpus.fpInstQueueReads            0                       # Number of floating instruction queue reads (Count)
system.cpu_cluster.cpus.fpInstQueueWrites            0                       # Number of floating instruction queue writes (Count)
system.cpu_cluster.cpus.fpInstQueueWakeupAccesses            0                       # Number of floating instruction queue wakeup accesses (Count)
system.cpu_cluster.cpus.vecInstQueueReads          194                       # Number of vector instruction queue reads (Count)
system.cpu_cluster.cpus.vecInstQueueWrites          101                       # Number of vector instruction queue writes (Count)
system.cpu_cluster.cpus.vecInstQueueWakeupAccesses           81                       # Number of vector instruction queue wakeup accesses (Count)
system.cpu_cluster.cpus.intAluAccesses       16995459                       # Number of integer alu accesses (Count)
system.cpu_cluster.cpus.fpAluAccesses               0                       # Number of floating point alu accesses (Count)
system.cpu_cluster.cpus.vecAluAccesses            110                       # Number of vector alu accesses (Count)
system.cpu_cluster.cpus.numSquashedInsts         1428                       # Number of squashed instructions skipped in execute (Count)
system.cpu_cluster.cpus.numSwp                      0                       # Number of swp insts executed (Count)
system.cpu_cluster.cpus.timesIdled                274                       # Number of times that the entire CPU went into an idle state and unscheduled itself (Count)
system.cpu_cluster.cpus.idleCycles              49290                       # Total number of cycles that the CPU has spent unscheduled due to idling (Cycle)
system.cpu_cluster.cpus.MemDepUnit__0.insertedLoads      1999139                       # Number of loads inserted to the mem dependence unit. (Count)
system.cpu_cluster.cpus.MemDepUnit__0.insertedStores      1998281                       # Number of stores inserted to the mem dependence unit. (Count)
system.cpu_cluster.cpus.MemDepUnit__0.conflictingLoads            2                       # Number of conflicting loads. (Count)
system.cpu_cluster.cpus.MemDepUnit__0.conflictingStores           13                       # Number of conflicting stores. (Count)
system.cpu_cluster.cpus.MemDepUnit__1.insertedLoads            0                       # Number of loads inserted to the mem dependence unit. (Count)
system.cpu_cluster.cpus.MemDepUnit__1.insertedStores            0                       # Number of stores inserted to the mem dependence unit. (Count)
system.cpu_cluster.cpus.MemDepUnit__1.conflictingLoads            0                       # Number of conflicting loads. (Count)
system.cpu_cluster.cpus.MemDepUnit__1.conflictingStores            0                       # Number of conflicting stores. (Count)
system.cpu_cluster.cpus.MemDepUnit__2.insertedLoads            0                       # Number of loads inserted to the mem dependence unit. (Count)
system.cpu_cluster.cpus.MemDepUnit__2.insertedStores            0                       # Number of stores inserted to the mem dependence unit. (Count)
system.cpu_cluster.cpus.MemDepUnit__2.conflictingLoads            0                       # Number of conflicting loads. (Count)
system.cpu_cluster.cpus.MemDepUnit__2.conflictingStores            0                       # Number of conflicting stores. (Count)
system.cpu_cluster.cpus.MemDepUnit__3.insertedLoads            0                       # Number of loads inserted to the mem dependence unit. (Count)
system.cpu_cluster.cpus.MemDepUnit__3.insertedStores            0                       # Number of stores inserted to the mem dependence unit. (Count)
system.cpu_cluster.cpus.MemDepUnit__3.conflictingLoads            0                       # Number of conflicting loads. (Count)
system.cpu_cluster.cpus.MemDepUnit__3.conflictingStores            0                       # Number of conflicting stores. (Count)
system.cpu_cluster.cpus.branchPred.lookups      2003352                       # Number of BP lookups (Count)
system.cpu_cluster.cpus.branchPred.condPredicted      1002709                       # Number of conditional branches predicted (Count)
system.cpu_cluster.cpus.branchPred.condIncorrect         1504                       # Number of conditional branches incorrect (Count)
system.cpu_cluster.cpus.branchPred.BTBLookups      1001959                       # Number of BTB lookups (Count)
system.cpu_cluster.cpus.branchPred.BTBUpdates         1432                       # Number of BTB updates (Count)
system.cpu_cluster.cpus.branchPred.BTBHits      1001518                       # Number of BTB hits (Count)
system.cpu_cluster.cpus.branchPred.BTBHitRatio     0.999560                       # BTB Hit Ratio (Ratio)
system.cpu_cluster.cpus.branchPred.RASUsed          208                       # Number of times the RAS was used to get a target. (Count)
system.cpu_cluster.cpus.branchPred.RASIncorrect            2                       # Number of incorrect RAS predictions. (Count)
system.cpu_cluster.cpus.branchPred.indirectLookups           70                       # Number of indirect predictor lookups. (Count)
system.cpu_cluster.cpus.branchPred.indirectHits            0                       # Number of indirect target hits. (Count)
system.cpu_cluster.cpus.branchPred.indirectMisses           70                       # Number of indirect misses. (Count)
system.cpu_cluster.cpus.branchPred.indirectMispredicted           32                       # Number of mispredicted indirect branches. (Count)
system.cpu_cluster.cpus.commit.commitSquashedInsts         3940                       # The number of squashed insts skipped by commit (Count)
system.cpu_cluster.cpus.commit.commitNonSpecStalls           17                       # The number of times commit has been forced to stall to communicate backwards (Count)
system.cpu_cluster.cpus.commit.branchMispredicts         1350                       # The number of times a branch was mispredicted (Count)
system.cpu_cluster.cpus.commit.numCommittedDist::samples     13021606                       # Number of insts commited each cycle (Count)
system.cpu_cluster.cpus.commit.numCommittedDist::mean     1.074711                       # Number of insts commited each cycle (Count)
system.cpu_cluster.cpus.commit.numCommittedDist::stdev     1.206278                       # Number of insts commited each cycle (Count)
system.cpu_cluster.cpus.commit.numCommittedDist::underflows            0      0.00%      0.00% # Number of insts commited each cycle (Count)
system.cpu_cluster.cpus.commit.numCommittedDist::0      5025024     38.59%     38.59% # Number of insts commited each cycle (Count)
system.cpu_cluster.cpus.commit.numCommittedDist::1      4996938     38.37%     76.96% # Number of insts commited each cycle (Count)
system.cpu_cluster.cpus.commit.numCommittedDist::2      1001120      7.69%     84.65% # Number of insts commited each cycle (Count)
system.cpu_cluster.cpus.commit.numCommittedDist::3       999269      7.67%     92.33% # Number of insts commited each cycle (Count)
system.cpu_cluster.cpus.commit.numCommittedDist::4       999031      7.67%    100.00% # Number of insts commited each cycle (Count)
system.cpu_cluster.cpus.commit.numCommittedDist::5          120      0.00%    100.00% # Number of insts commited each cycle (Count)
system.cpu_cluster.cpus.commit.numCommittedDist::6           35      0.00%    100.00% # Number of insts commited each cycle (Count)
system.cpu_cluster.cpus.commit.numCommittedDist::7           14      0.00%    100.00% # Number of insts commited each cycle (Count)
system.cpu_cluster.cpus.commit.numCommittedDist::8           55      0.00%    100.00% # Number of insts commited each cycle (Count)
system.cpu_cluster.cpus.commit.numCommittedDist::overflows            0      0.00%    100.00% # Number of insts commited each cycle (Count)
system.cpu_cluster.cpus.commit.numCommittedDist::min_value            0                       # Number of insts commited each cycle (Count)
system.cpu_cluster.cpus.commit.numCommittedDist::max_value            8                       # Number of insts commited each cycle (Count)
system.cpu_cluster.cpus.commit.numCommittedDist::total     13021606                       # Number of insts commited each cycle (Count)
system.cpu_cluster.cpus.commit.amos                 0                       # Number of atomic instructions committed (Count)
system.cpu_cluster.cpus.commit.membars              4                       # Number of memory barriers committed (Count)
system.cpu_cluster.cpus.commit.functionCalls          105                       # Number of function calls committed. (Count)
system.cpu_cluster.cpus.commit.committedInstType_0::No_OpClass            6      0.00%      0.00% # Class of committed instruction (Count)
system.cpu_cluster.cpus.commit.committedInstType_0::IntAlu      9998628     71.45%     71.45% # Class of committed instruction (Count)
system.cpu_cluster.cpus.commit.committedInstType_0::IntMult         1003      0.01%     71.45% # Class of committed instruction (Count)
system.cpu_cluster.cpus.commit.committedInstType_0::IntDiv            2      0.00%     71.45% # Class of committed instruction (Count)
system.cpu_cluster.cpus.commit.committedInstType_0::FloatAdd            0      0.00%     71.45% # Class of committed instruction (Count)
system.cpu_cluster.cpus.commit.committedInstType_0::FloatCmp            0      0.00%     71.45% # Class of committed instruction (Count)
system.cpu_cluster.cpus.commit.committedInstType_0::FloatCvt            0      0.00%     71.45% # Class of committed instruction (Count)
system.cpu_cluster.cpus.commit.committedInstType_0::FloatMult            0      0.00%     71.45% # Class of committed instruction (Count)
system.cpu_cluster.cpus.commit.committedInstType_0::FloatMultAcc            0      0.00%     71.45% # Class of committed instruction (Count)
system.cpu_cluster.cpus.commit.committedInstType_0::FloatDiv            0      0.00%     71.45% # Class of committed instruction (Count)
system.cpu_cluster.cpus.commit.committedInstType_0::FloatMisc            0      0.00%     71.45% # Class of committed instruction (Count)
system.cpu_cluster.cpus.commit.committedInstType_0::FloatSqrt            0      0.00%     71.45% # Class of committed instruction (Count)
system.cpu_cluster.cpus.commit.committedInstType_0::SimdAdd           11      0.00%     71.45% # Class of committed instruction (Count)
system.cpu_cluster.cpus.commit.committedInstType_0::SimdAddAcc            0      0.00%     71.45% # Class of committed instruction (Count)
system.cpu_cluster.cpus.commit.committedInstType_0::SimdAlu            8      0.00%     71.45% # Class of committed instruction (Count)
system.cpu_cluster.cpus.commit.committedInstType_0::SimdCmp            8      0.00%     71.45% # Class of committed instruction (Count)
system.cpu_cluster.cpus.commit.committedInstType_0::SimdCvt            0      0.00%     71.45% # Class of committed instruction (Count)
system.cpu_cluster.cpus.commit.committedInstType_0::SimdMisc            8      0.00%     71.45% # Class of committed instruction (Count)
system.cpu_cluster.cpus.commit.committedInstType_0::SimdMult            0      0.00%     71.45% # Class of committed instruction (Count)
system.cpu_cluster.cpus.commit.committedInstType_0::SimdMultAcc            0      0.00%     71.45% # Class of committed instruction (Count)
system.cpu_cluster.cpus.commit.committedInstType_0::SimdMatMultAcc            0      0.00%     71.45% # Class of committed instruction (Count)
system.cpu_cluster.cpus.commit.committedInstType_0::SimdShift            0      0.00%     71.45% # Class of committed instruction (Count)
system.cpu_cluster.cpus.commit.committedInstType_0::SimdShiftAcc            0      0.00%     71.45% # Class of committed instruction (Count)
system.cpu_cluster.cpus.commit.committedInstType_0::SimdDiv            0      0.00%     71.45% # Class of committed instruction (Count)
system.cpu_cluster.cpus.commit.committedInstType_0::SimdSqrt            0      0.00%     71.45% # Class of committed instruction (Count)
system.cpu_cluster.cpus.commit.committedInstType_0::SimdFloatAdd            0      0.00%     71.45% # Class of committed instruction (Count)
system.cpu_cluster.cpus.commit.committedInstType_0::SimdFloatAlu            0      0.00%     71.45% # Class of committed instruction (Count)
system.cpu_cluster.cpus.commit.committedInstType_0::SimdFloatCmp            0      0.00%     71.45% # Class of committed instruction (Count)
system.cpu_cluster.cpus.commit.committedInstType_0::SimdFloatCvt            0      0.00%     71.45% # Class of committed instruction (Count)
system.cpu_cluster.cpus.commit.committedInstType_0::SimdFloatDiv            0      0.00%     71.45% # Class of committed instruction (Count)
system.cpu_cluster.cpus.commit.committedInstType_0::SimdFloatMisc            0      0.00%     71.45% # Class of committed instruction (Count)
system.cpu_cluster.cpus.commit.committedInstType_0::SimdFloatMult            0      0.00%     71.45% # Class of committed instruction (Count)
system.cpu_cluster.cpus.commit.committedInstType_0::SimdFloatMultAcc            0      0.00%     71.45% # Class of committed instruction (Count)
system.cpu_cluster.cpus.commit.committedInstType_0::SimdFloatMatMultAcc            0      0.00%     71.45% # Class of committed instruction (Count)
system.cpu_cluster.cpus.commit.committedInstType_0::SimdFloatSqrt            0      0.00%     71.45% # Class of committed instruction (Count)
system.cpu_cluster.cpus.commit.committedInstType_0::SimdReduceAdd            0      0.00%     71.45% # Class of committed instruction (Count)
system.cpu_cluster.cpus.commit.committedInstType_0::SimdReduceAlu            0      0.00%     71.45% # Class of committed instruction (Count)
system.cpu_cluster.cpus.commit.committedInstType_0::SimdReduceCmp            0      0.00%     71.45% # Class of committed instruction (Count)
system.cpu_cluster.cpus.commit.committedInstType_0::SimdFloatReduceAdd            0      0.00%     71.45% # Class of committed instruction (Count)
system.cpu_cluster.cpus.commit.committedInstType_0::SimdFloatReduceCmp            0      0.00%     71.45% # Class of committed instruction (Count)
system.cpu_cluster.cpus.commit.committedInstType_0::SimdAes            0      0.00%     71.45% # Class of committed instruction (Count)
system.cpu_cluster.cpus.commit.committedInstType_0::SimdAesMix            0      0.00%     71.45% # Class of committed instruction (Count)
system.cpu_cluster.cpus.commit.committedInstType_0::SimdSha1Hash            0      0.00%     71.45% # Class of committed instruction (Count)
system.cpu_cluster.cpus.commit.committedInstType_0::SimdSha1Hash2            0      0.00%     71.45% # Class of committed instruction (Count)
system.cpu_cluster.cpus.commit.committedInstType_0::SimdSha256Hash            0      0.00%     71.45% # Class of committed instruction (Count)
system.cpu_cluster.cpus.commit.committedInstType_0::SimdSha256Hash2            0      0.00%     71.45% # Class of committed instruction (Count)
system.cpu_cluster.cpus.commit.committedInstType_0::SimdShaSigma2            0      0.00%     71.45% # Class of committed instruction (Count)
system.cpu_cluster.cpus.commit.committedInstType_0::SimdShaSigma3            0      0.00%     71.45% # Class of committed instruction (Count)
system.cpu_cluster.cpus.commit.committedInstType_0::SimdPredAlu            0      0.00%     71.45% # Class of committed instruction (Count)
system.cpu_cluster.cpus.commit.committedInstType_0::Matrix            0      0.00%     71.45% # Class of committed instruction (Count)
system.cpu_cluster.cpus.commit.committedInstType_0::MatrixMov            0      0.00%     71.45% # Class of committed instruction (Count)
system.cpu_cluster.cpus.commit.committedInstType_0::MatrixOP            0      0.00%     71.45% # Class of committed instruction (Count)
system.cpu_cluster.cpus.commit.committedInstType_0::MemRead      1996747     14.27%     85.72% # Class of committed instruction (Count)
system.cpu_cluster.cpus.commit.committedInstType_0::MemWrite      1998036     14.28%    100.00% # Class of committed instruction (Count)
system.cpu_cluster.cpus.commit.committedInstType_0::FloatMemRead            0      0.00%    100.00% # Class of committed instruction (Count)
system.cpu_cluster.cpus.commit.committedInstType_0::FloatMemWrite            0      0.00%    100.00% # Class of committed instruction (Count)
system.cpu_cluster.cpus.commit.committedInstType_0::IprAccess            0      0.00%    100.00% # Class of committed instruction (Count)
system.cpu_cluster.cpus.commit.committedInstType_0::InstPrefetch            0      0.00%    100.00% # Class of committed instruction (Count)
system.cpu_cluster.cpus.commit.committedInstType_0::VectorUnitStrideLoad            0      0.00%    100.00% # Class of committed instruction (Count)
system.cpu_cluster.cpus.commit.committedInstType_0::VectorUnitStrideStore            0      0.00%    100.00% # Class of committed instruction (Count)
system.cpu_cluster.cpus.commit.committedInstType_0::VectorUnitStrideMaskLoad            0      0.00%    100.00% # Class of committed instruction (Count)
system.cpu_cluster.cpus.commit.committedInstType_0::VectorUnitStrideMaskStore            0      0.00%    100.00% # Class of committed instruction (Count)
system.cpu_cluster.cpus.commit.committedInstType_0::VectorStridedLoad            0      0.00%    100.00% # Class of committed instruction (Count)
system.cpu_cluster.cpus.commit.committedInstType_0::VectorStridedStore            0      0.00%    100.00% # Class of committed instruction (Count)
system.cpu_cluster.cpus.commit.committedInstType_0::VectorIndexedLoad            0      0.00%    100.00% # Class of committed instruction (Count)
system.cpu_cluster.cpus.commit.committedInstType_0::VectorIndexedStore            0      0.00%    100.00% # Class of committed instruction (Count)
system.cpu_cluster.cpus.commit.committedInstType_0::VectorUnitStrideFaultOnlyFirstLoad            0      0.00%    100.00% # Class of committed instruction (Count)
system.cpu_cluster.cpus.commit.committedInstType_0::VectorWholeRegisterLoad            0      0.00%    100.00% # Class of committed instruction (Count)
system.cpu_cluster.cpus.commit.committedInstType_0::VectorWholeRegisterStore            0      0.00%    100.00% # Class of committed instruction (Count)
system.cpu_cluster.cpus.commit.committedInstType_0::VectorIntegerArith            0      0.00%    100.00% # Class of committed instruction (Count)
system.cpu_cluster.cpus.commit.committedInstType_0::VectorFloatArith            0      0.00%    100.00% # Class of committed instruction (Count)
system.cpu_cluster.cpus.commit.committedInstType_0::VectorFloatConvert            0      0.00%    100.00% # Class of committed instruction (Count)
system.cpu_cluster.cpus.commit.committedInstType_0::VectorIntegerReduce            0      0.00%    100.00% # Class of committed instruction (Count)
system.cpu_cluster.cpus.commit.committedInstType_0::VectorFloatReduce            0      0.00%    100.00% # Class of committed instruction (Count)
system.cpu_cluster.cpus.commit.committedInstType_0::VectorMisc            0      0.00%    100.00% # Class of committed instruction (Count)
system.cpu_cluster.cpus.commit.committedInstType_0::VectorIntegerExtension            0      0.00%    100.00% # Class of committed instruction (Count)
system.cpu_cluster.cpus.commit.committedInstType_0::VectorConfig            0      0.00%    100.00% # Class of committed instruction (Count)
system.cpu_cluster.cpus.commit.committedInstType_0::total     13994457                       # Class of committed instruction (Count)
system.cpu_cluster.cpus.commit.commitEligibleSamples           55                       # number cycles where commit BW limit reached (Cycle)
system.cpu_cluster.cpus.commitStats0.numInsts     13993476                       # Number of instructions committed (thread level) (Count)
system.cpu_cluster.cpus.commitStats0.numOps     13994457                       # Number of ops (including micro ops) committed (thread level) (Count)
system.cpu_cluster.cpus.commitStats0.numInstsNotNOP     13993456                       # Number of instructions committed excluding NOPs or prefetches (Count)
system.cpu_cluster.cpus.commitStats0.numOpsNotNOP     13994437                       # Number of Ops (including micro ops) Simulated (Count)
system.cpu_cluster.cpus.commitStats0.cpi     0.934176                       # CPI: cycles per instruction (thread level) ((Cycle/Count))
system.cpu_cluster.cpus.commitStats0.ipc     1.070462                       # IPC: instructions per cycle (thread level) ((Count/Cycle))
system.cpu_cluster.cpus.commitStats0.numMemRefs      3994783                       # Number of memory references committed (Count)
system.cpu_cluster.cpus.commitStats0.numFpInsts            0                       # Number of float instructions (Count)
system.cpu_cluster.cpus.commitStats0.numIntInsts     12993715                       # Number of integer instructions (Count)
system.cpu_cluster.cpus.commitStats0.numLoadInsts      1996747                       # Number of load instructions (Count)
system.cpu_cluster.cpus.commitStats0.numStoreInsts      1998036                       # Number of store instructions (Count)
system.cpu_cluster.cpus.commitStats0.numVecInsts           81                       # Number of vector instructions (Count)
system.cpu_cluster.cpus.commitStats0.committedInstType::No_OpClass            6      0.00%      0.00% # Class of committed instruction. (Count)
system.cpu_cluster.cpus.commitStats0.committedInstType::IntAlu      9998628     71.45%     71.45% # Class of committed instruction. (Count)
system.cpu_cluster.cpus.commitStats0.committedInstType::IntMult         1003      0.01%     71.45% # Class of committed instruction. (Count)
system.cpu_cluster.cpus.commitStats0.committedInstType::IntDiv            2      0.00%     71.45% # Class of committed instruction. (Count)
system.cpu_cluster.cpus.commitStats0.committedInstType::FloatAdd            0      0.00%     71.45% # Class of committed instruction. (Count)
system.cpu_cluster.cpus.commitStats0.committedInstType::FloatCmp            0      0.00%     71.45% # Class of committed instruction. (Count)
system.cpu_cluster.cpus.commitStats0.committedInstType::FloatCvt            0      0.00%     71.45% # Class of committed instruction. (Count)
system.cpu_cluster.cpus.commitStats0.committedInstType::FloatMult            0      0.00%     71.45% # Class of committed instruction. (Count)
system.cpu_cluster.cpus.commitStats0.committedInstType::FloatMultAcc            0      0.00%     71.45% # Class of committed instruction. (Count)
system.cpu_cluster.cpus.commitStats0.committedInstType::FloatDiv            0      0.00%     71.45% # Class of committed instruction. (Count)
system.cpu_cluster.cpus.commitStats0.committedInstType::FloatMisc            0      0.00%     71.45% # Class of committed instruction. (Count)
system.cpu_cluster.cpus.commitStats0.committedInstType::FloatSqrt            0      0.00%     71.45% # Class of committed instruction. (Count)
system.cpu_cluster.cpus.commitStats0.committedInstType::SimdAdd           11      0.00%     71.45% # Class of committed instruction. (Count)
system.cpu_cluster.cpus.commitStats0.committedInstType::SimdAddAcc            0      0.00%     71.45% # Class of committed instruction. (Count)
system.cpu_cluster.cpus.commitStats0.committedInstType::SimdAlu            8      0.00%     71.45% # Class of committed instruction. (Count)
system.cpu_cluster.cpus.commitStats0.committedInstType::SimdCmp            8      0.00%     71.45% # Class of committed instruction. (Count)
system.cpu_cluster.cpus.commitStats0.committedInstType::SimdCvt            0      0.00%     71.45% # Class of committed instruction. (Count)
system.cpu_cluster.cpus.commitStats0.committedInstType::SimdMisc            8      0.00%     71.45% # Class of committed instruction. (Count)
system.cpu_cluster.cpus.commitStats0.committedInstType::SimdMult            0      0.00%     71.45% # Class of committed instruction. (Count)
system.cpu_cluster.cpus.commitStats0.committedInstType::SimdMultAcc            0      0.00%     71.45% # Class of committed instruction. (Count)
system.cpu_cluster.cpus.commitStats0.committedInstType::SimdMatMultAcc            0      0.00%     71.45% # Class of committed instruction. (Count)
system.cpu_cluster.cpus.commitStats0.committedInstType::SimdShift            0      0.00%     71.45% # Class of committed instruction. (Count)
system.cpu_cluster.cpus.commitStats0.committedInstType::SimdShiftAcc            0      0.00%     71.45% # Class of committed instruction. (Count)
system.cpu_cluster.cpus.commitStats0.committedInstType::SimdDiv            0      0.00%     71.45% # Class of committed instruction. (Count)
system.cpu_cluster.cpus.commitStats0.committedInstType::SimdSqrt            0      0.00%     71.45% # Class of committed instruction. (Count)
system.cpu_cluster.cpus.commitStats0.committedInstType::SimdFloatAdd            0      0.00%     71.45% # Class of committed instruction. (Count)
system.cpu_cluster.cpus.commitStats0.committedInstType::SimdFloatAlu            0      0.00%     71.45% # Class of committed instruction. (Count)
system.cpu_cluster.cpus.commitStats0.committedInstType::SimdFloatCmp            0      0.00%     71.45% # Class of committed instruction. (Count)
system.cpu_cluster.cpus.commitStats0.committedInstType::SimdFloatCvt            0      0.00%     71.45% # Class of committed instruction. (Count)
system.cpu_cluster.cpus.commitStats0.committedInstType::SimdFloatDiv            0      0.00%     71.45% # Class of committed instruction. (Count)
system.cpu_cluster.cpus.commitStats0.committedInstType::SimdFloatMisc            0      0.00%     71.45% # Class of committed instruction. (Count)
system.cpu_cluster.cpus.commitStats0.committedInstType::SimdFloatMult            0      0.00%     71.45% # Class of committed instruction. (Count)
system.cpu_cluster.cpus.commitStats0.committedInstType::SimdFloatMultAcc            0      0.00%     71.45% # Class of committed instruction. (Count)
system.cpu_cluster.cpus.commitStats0.committedInstType::SimdFloatMatMultAcc            0      0.00%     71.45% # Class of committed instruction. (Count)
system.cpu_cluster.cpus.commitStats0.committedInstType::SimdFloatSqrt            0      0.00%     71.45% # Class of committed instruction. (Count)
system.cpu_cluster.cpus.commitStats0.committedInstType::SimdReduceAdd            0      0.00%     71.45% # Class of committed instruction. (Count)
system.cpu_cluster.cpus.commitStats0.committedInstType::SimdReduceAlu            0      0.00%     71.45% # Class of committed instruction. (Count)
system.cpu_cluster.cpus.commitStats0.committedInstType::SimdReduceCmp            0      0.00%     71.45% # Class of committed instruction. (Count)
system.cpu_cluster.cpus.commitStats0.committedInstType::SimdFloatReduceAdd            0      0.00%     71.45% # Class of committed instruction. (Count)
system.cpu_cluster.cpus.commitStats0.committedInstType::SimdFloatReduceCmp            0      0.00%     71.45% # Class of committed instruction. (Count)
system.cpu_cluster.cpus.commitStats0.committedInstType::SimdAes            0      0.00%     71.45% # Class of committed instruction. (Count)
system.cpu_cluster.cpus.commitStats0.committedInstType::SimdAesMix            0      0.00%     71.45% # Class of committed instruction. (Count)
system.cpu_cluster.cpus.commitStats0.committedInstType::SimdSha1Hash            0      0.00%     71.45% # Class of committed instruction. (Count)
system.cpu_cluster.cpus.commitStats0.committedInstType::SimdSha1Hash2            0      0.00%     71.45% # Class of committed instruction. (Count)
system.cpu_cluster.cpus.commitStats0.committedInstType::SimdSha256Hash            0      0.00%     71.45% # Class of committed instruction. (Count)
system.cpu_cluster.cpus.commitStats0.committedInstType::SimdSha256Hash2            0      0.00%     71.45% # Class of committed instruction. (Count)
system.cpu_cluster.cpus.commitStats0.committedInstType::SimdShaSigma2            0      0.00%     71.45% # Class of committed instruction. (Count)
system.cpu_cluster.cpus.commitStats0.committedInstType::SimdShaSigma3            0      0.00%     71.45% # Class of committed instruction. (Count)
system.cpu_cluster.cpus.commitStats0.committedInstType::SimdPredAlu            0      0.00%     71.45% # Class of committed instruction. (Count)
system.cpu_cluster.cpus.commitStats0.committedInstType::Matrix            0      0.00%     71.45% # Class of committed instruction. (Count)
system.cpu_cluster.cpus.commitStats0.committedInstType::MatrixMov            0      0.00%     71.45% # Class of committed instruction. (Count)
system.cpu_cluster.cpus.commitStats0.committedInstType::MatrixOP            0      0.00%     71.45% # Class of committed instruction. (Count)
system.cpu_cluster.cpus.commitStats0.committedInstType::MemRead      1996747     14.27%     85.72% # Class of committed instruction. (Count)
system.cpu_cluster.cpus.commitStats0.committedInstType::MemWrite      1998036     14.28%    100.00% # Class of committed instruction. (Count)
system.cpu_cluster.cpus.commitStats0.committedInstType::FloatMemRead            0      0.00%    100.00% # Class of committed instruction. (Count)
system.cpu_cluster.cpus.commitStats0.committedInstType::FloatMemWrite            0      0.00%    100.00% # Class of committed instruction. (Count)
system.cpu_cluster.cpus.commitStats0.committedInstType::IprAccess            0      0.00%    100.00% # Class of committed instruction. (Count)
system.cpu_cluster.cpus.commitStats0.committedInstType::InstPrefetch            0      0.00%    100.00% # Class of committed instruction. (Count)
system.cpu_cluster.cpus.commitStats0.committedInstType::VectorUnitStrideLoad            0      0.00%    100.00% # Class of committed instruction. (Count)
system.cpu_cluster.cpus.commitStats0.committedInstType::VectorUnitStrideStore            0      0.00%    100.00% # Class of committed instruction. (Count)
system.cpu_cluster.cpus.commitStats0.committedInstType::VectorUnitStrideMaskLoad            0      0.00%    100.00% # Class of committed instruction. (Count)
system.cpu_cluster.cpus.commitStats0.committedInstType::VectorUnitStrideMaskStore            0      0.00%    100.00% # Class of committed instruction. (Count)
system.cpu_cluster.cpus.commitStats0.committedInstType::VectorStridedLoad            0      0.00%    100.00% # Class of committed instruction. (Count)
system.cpu_cluster.cpus.commitStats0.committedInstType::VectorStridedStore            0      0.00%    100.00% # Class of committed instruction. (Count)
system.cpu_cluster.cpus.commitStats0.committedInstType::VectorIndexedLoad            0      0.00%    100.00% # Class of committed instruction. (Count)
system.cpu_cluster.cpus.commitStats0.committedInstType::VectorIndexedStore            0      0.00%    100.00% # Class of committed instruction. (Count)
system.cpu_cluster.cpus.commitStats0.committedInstType::VectorUnitStrideFaultOnlyFirstLoad            0      0.00%    100.00% # Class of committed instruction. (Count)
system.cpu_cluster.cpus.commitStats0.committedInstType::VectorWholeRegisterLoad            0      0.00%    100.00% # Class of committed instruction. (Count)
system.cpu_cluster.cpus.commitStats0.committedInstType::VectorWholeRegisterStore            0      0.00%    100.00% # Class of committed instruction. (Count)
system.cpu_cluster.cpus.commitStats0.committedInstType::VectorIntegerArith            0      0.00%    100.00% # Class of committed instruction. (Count)
system.cpu_cluster.cpus.commitStats0.committedInstType::VectorFloatArith            0      0.00%    100.00% # Class of committed instruction. (Count)
system.cpu_cluster.cpus.commitStats0.committedInstType::VectorFloatConvert            0      0.00%    100.00% # Class of committed instruction. (Count)
system.cpu_cluster.cpus.commitStats0.committedInstType::VectorIntegerReduce            0      0.00%    100.00% # Class of committed instruction. (Count)
system.cpu_cluster.cpus.commitStats0.committedInstType::VectorFloatReduce            0      0.00%    100.00% # Class of committed instruction. (Count)
system.cpu_cluster.cpus.commitStats0.committedInstType::VectorMisc            0      0.00%    100.00% # Class of committed instruction. (Count)
system.cpu_cluster.cpus.commitStats0.committedInstType::VectorIntegerExtension            0      0.00%    100.00% # Class of committed instruction. (Count)
system.cpu_cluster.cpus.commitStats0.committedInstType::VectorConfig            0      0.00%    100.00% # Class of committed instruction. (Count)
system.cpu_cluster.cpus.commitStats0.committedInstType::total     13994457                       # Class of committed instruction. (Count)
system.cpu_cluster.cpus.commitStats0.committedControl::IsControl      2001224                       # Class of control type instructions committed (Count)
system.cpu_cluster.cpus.commitStats0.committedControl::IsDirectControl      2001091                       # Class of control type instructions committed (Count)
system.cpu_cluster.cpus.commitStats0.committedControl::IsIndirectControl          133                       # Class of control type instructions committed (Count)
system.cpu_cluster.cpus.commitStats0.committedControl::IsCondControl      1001924                       # Class of control type instructions committed (Count)
system.cpu_cluster.cpus.commitStats0.committedControl::IsUncondControl       999300                       # Class of control type instructions committed (Count)
system.cpu_cluster.cpus.commitStats0.committedControl::IsCall          105                       # Class of control type instructions committed (Count)
system.cpu_cluster.cpus.commitStats0.committedControl::IsReturn          102                       # Class of control type instructions committed (Count)
system.cpu_cluster.cpus.dcache.demandHits::cpu_cluster.cpus.data      3993372                       # number of demand (read+write) hits (Count)
system.cpu_cluster.cpus.dcache.demandHits::total      3993372                       # number of demand (read+write) hits (Count)
system.cpu_cluster.cpus.dcache.overallHits::cpu_cluster.cpus.data      3993377                       # number of overall hits (Count)
system.cpu_cluster.cpus.dcache.overallHits::total      3993377                       # number of overall hits (Count)
system.cpu_cluster.cpus.dcache.demandMisses::cpu_cluster.cpus.data         1608                       # number of demand (read+write) misses (Count)
system.cpu_cluster.cpus.dcache.demandMisses::total         1608                       # number of demand (read+write) misses (Count)
system.cpu_cluster.cpus.dcache.overallMisses::cpu_cluster.cpus.data         1610                       # number of overall misses (Count)
system.cpu_cluster.cpus.dcache.overallMisses::total         1610                       # number of overall misses (Count)
system.cpu_cluster.cpus.dcache.demandMissLatency::cpu_cluster.cpus.data     45367340                       # number of demand (read+write) miss ticks (Tick)
system.cpu_cluster.cpus.dcache.demandMissLatency::total     45367340                       # number of demand (read+write) miss ticks (Tick)
system.cpu_cluster.cpus.dcache.overallMissLatency::cpu_cluster.cpus.data     45367340                       # number of overall miss ticks (Tick)
system.cpu_cluster.cpus.dcache.overallMissLatency::total     45367340                       # number of overall miss ticks (Tick)
system.cpu_cluster.cpus.dcache.demandAccesses::cpu_cluster.cpus.data      3994980                       # number of demand (read+write) accesses (Count)
system.cpu_cluster.cpus.dcache.demandAccesses::total      3994980                       # number of demand (read+write) accesses (Count)
system.cpu_cluster.cpus.dcache.overallAccesses::cpu_cluster.cpus.data      3994987                       # number of overall (read+write) accesses (Count)
system.cpu_cluster.cpus.dcache.overallAccesses::total      3994987                       # number of overall (read+write) accesses (Count)
system.cpu_cluster.cpus.dcache.demandMissRate::cpu_cluster.cpus.data     0.000403                       # miss rate for demand accesses (Ratio)
system.cpu_cluster.cpus.dcache.demandMissRate::total     0.000403                       # miss rate for demand accesses (Ratio)
system.cpu_cluster.cpus.dcache.overallMissRate::cpu_cluster.cpus.data     0.000403                       # miss rate for overall accesses (Ratio)
system.cpu_cluster.cpus.dcache.overallMissRate::total     0.000403                       # miss rate for overall accesses (Ratio)
system.cpu_cluster.cpus.dcache.demandAvgMissLatency::cpu_cluster.cpus.data 28213.519900                       # average overall miss latency in ticks ((Tick/Count))
system.cpu_cluster.cpus.dcache.demandAvgMissLatency::total 28213.519900                       # average overall miss latency in ticks ((Tick/Count))
system.cpu_cluster.cpus.dcache.overallAvgMissLatency::cpu_cluster.cpus.data 28178.472050                       # average overall miss latency ((Tick/Count))
system.cpu_cluster.cpus.dcache.overallAvgMissLatency::total 28178.472050                       # average overall miss latency ((Tick/Count))
system.cpu_cluster.cpus.dcache.blockedCycles::no_mshrs          357                       # number of cycles access was blocked (Cycle)
system.cpu_cluster.cpus.dcache.blockedCycles::no_targets        12806                       # number of cycles access was blocked (Cycle)
system.cpu_cluster.cpus.dcache.blockedCauses::no_mshrs            7                       # number of times access was blocked (Count)
system.cpu_cluster.cpus.dcache.blockedCauses::no_targets          163                       # number of times access was blocked (Count)
system.cpu_cluster.cpus.dcache.avgBlocked::no_mshrs           51                       # average number of cycles each access was blocked ((Cycle/Count))
system.cpu_cluster.cpus.dcache.avgBlocked::no_targets    78.564417                       # average number of cycles each access was blocked ((Cycle/Count))
system.cpu_cluster.cpus.dcache.writebacks::writebacks            9                       # number of writebacks (Count)
system.cpu_cluster.cpus.dcache.writebacks::total            9                       # number of writebacks (Count)
system.cpu_cluster.cpus.dcache.demandMshrHits::cpu_cluster.cpus.data         1311                       # number of demand (read+write) MSHR hits (Count)
system.cpu_cluster.cpus.dcache.demandMshrHits::total         1311                       # number of demand (read+write) MSHR hits (Count)
system.cpu_cluster.cpus.dcache.overallMshrHits::cpu_cluster.cpus.data         1311                       # number of overall MSHR hits (Count)
system.cpu_cluster.cpus.dcache.overallMshrHits::total         1311                       # number of overall MSHR hits (Count)
system.cpu_cluster.cpus.dcache.demandMshrMisses::cpu_cluster.cpus.data          297                       # number of demand (read+write) MSHR misses (Count)
system.cpu_cluster.cpus.dcache.demandMshrMisses::total          297                       # number of demand (read+write) MSHR misses (Count)
system.cpu_cluster.cpus.dcache.overallMshrMisses::cpu_cluster.cpus.data          299                       # number of overall MSHR misses (Count)
system.cpu_cluster.cpus.dcache.overallMshrMisses::total          299                       # number of overall MSHR misses (Count)
system.cpu_cluster.cpus.dcache.demandMshrMissLatency::cpu_cluster.cpus.data     11961842                       # number of demand (read+write) MSHR miss ticks (Tick)
system.cpu_cluster.cpus.dcache.demandMshrMissLatency::total     11961842                       # number of demand (read+write) MSHR miss ticks (Tick)
system.cpu_cluster.cpus.dcache.overallMshrMissLatency::cpu_cluster.cpus.data     12091592                       # number of overall MSHR miss ticks (Tick)
system.cpu_cluster.cpus.dcache.overallMshrMissLatency::total     12091592                       # number of overall MSHR miss ticks (Tick)
system.cpu_cluster.cpus.dcache.demandMshrMissRate::cpu_cluster.cpus.data     0.000074                       # mshr miss ratio for demand accesses (Ratio)
system.cpu_cluster.cpus.dcache.demandMshrMissRate::total     0.000074                       # mshr miss ratio for demand accesses (Ratio)
system.cpu_cluster.cpus.dcache.overallMshrMissRate::cpu_cluster.cpus.data     0.000075                       # mshr miss ratio for overall accesses (Ratio)
system.cpu_cluster.cpus.dcache.overallMshrMissRate::total     0.000075                       # mshr miss ratio for overall accesses (Ratio)
system.cpu_cluster.cpus.dcache.demandAvgMshrMissLatency::cpu_cluster.cpus.data 40275.562290                       # average overall mshr miss latency ((Tick/Count))
system.cpu_cluster.cpus.dcache.demandAvgMshrMissLatency::total 40275.562290                       # average overall mshr miss latency ((Tick/Count))
system.cpu_cluster.cpus.dcache.overallAvgMshrMissLatency::cpu_cluster.cpus.data 40440.107023                       # average overall mshr miss latency ((Tick/Count))
system.cpu_cluster.cpus.dcache.overallAvgMshrMissLatency::total 40440.107023                       # average overall mshr miss latency ((Tick/Count))
system.cpu_cluster.cpus.dcache.replacements            9                       # number of replacements (Count)
system.cpu_cluster.cpus.dcache.LoadLockedReq.hits::cpu_cluster.cpus.data            4                       # number of LoadLockedReq hits (Count)
system.cpu_cluster.cpus.dcache.LoadLockedReq.hits::total            4                       # number of LoadLockedReq hits (Count)
system.cpu_cluster.cpus.dcache.LoadLockedReq.accesses::cpu_cluster.cpus.data            4                       # number of LoadLockedReq accesses(hits+misses) (Count)
system.cpu_cluster.cpus.dcache.LoadLockedReq.accesses::total            4                       # number of LoadLockedReq accesses(hits+misses) (Count)
system.cpu_cluster.cpus.dcache.ReadReq.hits::cpu_cluster.cpus.data      1996804                       # number of ReadReq hits (Count)
system.cpu_cluster.cpus.dcache.ReadReq.hits::total      1996804                       # number of ReadReq hits (Count)
system.cpu_cluster.cpus.dcache.ReadReq.misses::cpu_cluster.cpus.data          144                       # number of ReadReq misses (Count)
system.cpu_cluster.cpus.dcache.ReadReq.misses::total          144                       # number of ReadReq misses (Count)
system.cpu_cluster.cpus.dcache.ReadReq.missLatency::cpu_cluster.cpus.data      7788750                       # number of ReadReq miss ticks (Tick)
system.cpu_cluster.cpus.dcache.ReadReq.missLatency::total      7788750                       # number of ReadReq miss ticks (Tick)
system.cpu_cluster.cpus.dcache.ReadReq.accesses::cpu_cluster.cpus.data      1996948                       # number of ReadReq accesses(hits+misses) (Count)
system.cpu_cluster.cpus.dcache.ReadReq.accesses::total      1996948                       # number of ReadReq accesses(hits+misses) (Count)
system.cpu_cluster.cpus.dcache.ReadReq.missRate::cpu_cluster.cpus.data     0.000072                       # miss rate for ReadReq accesses (Ratio)
system.cpu_cluster.cpus.dcache.ReadReq.missRate::total     0.000072                       # miss rate for ReadReq accesses (Ratio)
system.cpu_cluster.cpus.dcache.ReadReq.avgMissLatency::cpu_cluster.cpus.data 54088.541667                       # average ReadReq miss latency ((Tick/Count))
system.cpu_cluster.cpus.dcache.ReadReq.avgMissLatency::total 54088.541667                       # average ReadReq miss latency ((Tick/Count))
system.cpu_cluster.cpus.dcache.ReadReq.mshrHits::cpu_cluster.cpus.data           68                       # number of ReadReq MSHR hits (Count)
system.cpu_cluster.cpus.dcache.ReadReq.mshrHits::total           68                       # number of ReadReq MSHR hits (Count)
system.cpu_cluster.cpus.dcache.ReadReq.mshrMisses::cpu_cluster.cpus.data           76                       # number of ReadReq MSHR misses (Count)
system.cpu_cluster.cpus.dcache.ReadReq.mshrMisses::total           76                       # number of ReadReq MSHR misses (Count)
system.cpu_cluster.cpus.dcache.ReadReq.mshrMissLatency::cpu_cluster.cpus.data      4926500                       # number of ReadReq MSHR miss ticks (Tick)
system.cpu_cluster.cpus.dcache.ReadReq.mshrMissLatency::total      4926500                       # number of ReadReq MSHR miss ticks (Tick)
system.cpu_cluster.cpus.dcache.ReadReq.mshrMissRate::cpu_cluster.cpus.data     0.000038                       # mshr miss rate for ReadReq accesses (Ratio)
system.cpu_cluster.cpus.dcache.ReadReq.mshrMissRate::total     0.000038                       # mshr miss rate for ReadReq accesses (Ratio)
system.cpu_cluster.cpus.dcache.ReadReq.avgMshrMissLatency::cpu_cluster.cpus.data 64822.368421                       # average ReadReq mshr miss latency ((Tick/Count))
system.cpu_cluster.cpus.dcache.ReadReq.avgMshrMissLatency::total 64822.368421                       # average ReadReq mshr miss latency ((Tick/Count))
system.cpu_cluster.cpus.dcache.SoftPFReq.hits::cpu_cluster.cpus.data            5                       # number of SoftPFReq hits (Count)
system.cpu_cluster.cpus.dcache.SoftPFReq.hits::total            5                       # number of SoftPFReq hits (Count)
system.cpu_cluster.cpus.dcache.SoftPFReq.misses::cpu_cluster.cpus.data            2                       # number of SoftPFReq misses (Count)
system.cpu_cluster.cpus.dcache.SoftPFReq.misses::total            2                       # number of SoftPFReq misses (Count)
system.cpu_cluster.cpus.dcache.SoftPFReq.accesses::cpu_cluster.cpus.data            7                       # number of SoftPFReq accesses(hits+misses) (Count)
system.cpu_cluster.cpus.dcache.SoftPFReq.accesses::total            7                       # number of SoftPFReq accesses(hits+misses) (Count)
system.cpu_cluster.cpus.dcache.SoftPFReq.missRate::cpu_cluster.cpus.data     0.285714                       # miss rate for SoftPFReq accesses (Ratio)
system.cpu_cluster.cpus.dcache.SoftPFReq.missRate::total     0.285714                       # miss rate for SoftPFReq accesses (Ratio)
system.cpu_cluster.cpus.dcache.SoftPFReq.mshrMisses::cpu_cluster.cpus.data            2                       # number of SoftPFReq MSHR misses (Count)
system.cpu_cluster.cpus.dcache.SoftPFReq.mshrMisses::total            2                       # number of SoftPFReq MSHR misses (Count)
system.cpu_cluster.cpus.dcache.SoftPFReq.mshrMissLatency::cpu_cluster.cpus.data       129750                       # number of SoftPFReq MSHR miss ticks (Tick)
system.cpu_cluster.cpus.dcache.SoftPFReq.mshrMissLatency::total       129750                       # number of SoftPFReq MSHR miss ticks (Tick)
system.cpu_cluster.cpus.dcache.SoftPFReq.mshrMissRate::cpu_cluster.cpus.data     0.285714                       # mshr miss rate for SoftPFReq accesses (Ratio)
system.cpu_cluster.cpus.dcache.SoftPFReq.mshrMissRate::total     0.285714                       # mshr miss rate for SoftPFReq accesses (Ratio)
system.cpu_cluster.cpus.dcache.SoftPFReq.avgMshrMissLatency::cpu_cluster.cpus.data        64875                       # average SoftPFReq mshr miss latency ((Tick/Count))
system.cpu_cluster.cpus.dcache.SoftPFReq.avgMshrMissLatency::total        64875                       # average SoftPFReq mshr miss latency ((Tick/Count))
system.cpu_cluster.cpus.dcache.StoreCondReq.hits::cpu_cluster.cpus.data            4                       # number of StoreCondReq hits (Count)
system.cpu_cluster.cpus.dcache.StoreCondReq.hits::total            4                       # number of StoreCondReq hits (Count)
system.cpu_cluster.cpus.dcache.StoreCondReq.accesses::cpu_cluster.cpus.data            4                       # number of StoreCondReq accesses(hits+misses) (Count)
system.cpu_cluster.cpus.dcache.StoreCondReq.accesses::total            4                       # number of StoreCondReq accesses(hits+misses) (Count)
system.cpu_cluster.cpus.dcache.WriteLineReq.misses::cpu_cluster.cpus.data            7                       # number of WriteLineReq misses (Count)
system.cpu_cluster.cpus.dcache.WriteLineReq.misses::total            7                       # number of WriteLineReq misses (Count)
system.cpu_cluster.cpus.dcache.WriteLineReq.missLatency::cpu_cluster.cpus.data       125499                       # number of WriteLineReq miss ticks (Tick)
system.cpu_cluster.cpus.dcache.WriteLineReq.missLatency::total       125499                       # number of WriteLineReq miss ticks (Tick)
system.cpu_cluster.cpus.dcache.WriteLineReq.accesses::cpu_cluster.cpus.data            7                       # number of WriteLineReq accesses(hits+misses) (Count)
system.cpu_cluster.cpus.dcache.WriteLineReq.accesses::total            7                       # number of WriteLineReq accesses(hits+misses) (Count)
system.cpu_cluster.cpus.dcache.WriteLineReq.missRate::cpu_cluster.cpus.data            1                       # miss rate for WriteLineReq accesses (Ratio)
system.cpu_cluster.cpus.dcache.WriteLineReq.missRate::total            1                       # miss rate for WriteLineReq accesses (Ratio)
system.cpu_cluster.cpus.dcache.WriteLineReq.avgMissLatency::cpu_cluster.cpus.data 17928.428571                       # average WriteLineReq miss latency ((Tick/Count))
system.cpu_cluster.cpus.dcache.WriteLineReq.avgMissLatency::total 17928.428571                       # average WriteLineReq miss latency ((Tick/Count))
system.cpu_cluster.cpus.dcache.WriteLineReq.mshrMisses::cpu_cluster.cpus.data            7                       # number of WriteLineReq MSHR misses (Count)
system.cpu_cluster.cpus.dcache.WriteLineReq.mshrMisses::total            7                       # number of WriteLineReq MSHR misses (Count)
system.cpu_cluster.cpus.dcache.WriteLineReq.mshrMissLatency::cpu_cluster.cpus.data       121999                       # number of WriteLineReq MSHR miss ticks (Tick)
system.cpu_cluster.cpus.dcache.WriteLineReq.mshrMissLatency::total       121999                       # number of WriteLineReq MSHR miss ticks (Tick)
system.cpu_cluster.cpus.dcache.WriteLineReq.mshrMissRate::cpu_cluster.cpus.data            1                       # mshr miss rate for WriteLineReq accesses (Ratio)
system.cpu_cluster.cpus.dcache.WriteLineReq.mshrMissRate::total            1                       # mshr miss rate for WriteLineReq accesses (Ratio)
system.cpu_cluster.cpus.dcache.WriteLineReq.avgMshrMissLatency::cpu_cluster.cpus.data 17428.428571                       # average WriteLineReq mshr miss latency ((Tick/Count))
[...]
system.mem_ctrls1.dram.numReads::total            246                       # Number of read requests responded to by this memory (Count)
system.mem_ctrls1.dram.bwRead::cpu_cluster.cpus.inst      3267573                       # Total read bandwidth from this memory ((Byte/Second))
system.mem_ctrls1.dram.bwRead::cpu_cluster.cpus.data      1467473                       # Total read bandwidth from this memory ((Byte/Second))
system.mem_ctrls1.dram.bwRead::cpu_cluster.l2.prefetcher        78265                       # Total read bandwidth from this memory ((Byte/Second))
system.mem_ctrls1.dram.bwRead::total          4813311                       # Total read bandwidth from this memory ((Byte/Second))
system.mem_ctrls1.dram.bwInstRead::cpu_cluster.cpus.inst      3267573                       # Instruction read bandwidth from this memory ((Byte/Second))
system.mem_ctrls1.dram.bwInstRead::total      3267573                       # Instruction read bandwidth from this memory ((Byte/Second))
system.mem_ctrls1.dram.bwTotal::cpu_cluster.cpus.inst      3267573                       # Total bandwidth to/from this memory ((Byte/Second))
system.mem_ctrls1.dram.bwTotal::cpu_cluster.cpus.data      1467473                       # Total bandwidth to/from this memory ((Byte/Second))
system.mem_ctrls1.dram.bwTotal::cpu_cluster.l2.prefetcher        78265                       # Total bandwidth to/from this memory ((Byte/Second))
system.mem_ctrls1.dram.bwTotal::total         4813311                       # Total bandwidth to/from this memory ((Byte/Second))
system.mem_ctrls1.dram.readBursts                 246                       # Number of DRAM read bursts (Count)
system.mem_ctrls1.dram.writeBursts                  0                       # Number of DRAM write bursts (Count)
system.mem_ctrls1.dram.perBankRdBursts::0           41                       # Per bank write bursts (Count)
system.mem_ctrls1.dram.perBankRdBursts::1           14                       # Per bank write bursts (Count)
system.mem_ctrls1.dram.perBankRdBursts::2            1                       # Per bank write bursts (Count)
system.mem_ctrls1.dram.perBankRdBursts::3           17                       # Per bank write bursts (Count)
system.mem_ctrls1.dram.perBankRdBursts::4           41                       # Per bank write bursts (Count)
system.mem_ctrls1.dram.perBankRdBursts::5           20                       # Per bank write bursts (Count)
system.mem_ctrls1.dram.perBankRdBursts::6           30                       # Per bank write bursts (Count)
system.mem_ctrls1.dram.perBankRdBursts::7            0                       # Per bank write bursts (Count)
system.mem_ctrls1.dram.perBankRdBursts::8            0                       # Per bank write bursts (Count)
system.mem_ctrls1.dram.perBankRdBursts::9            5                       # Per bank write bursts (Count)
system.mem_ctrls1.dram.perBankRdBursts::10            0                       # Per bank write bursts (Count)
system.mem_ctrls1.dram.perBankRdBursts::11            0                       # Per bank write bursts (Count)
system.mem_ctrls1.dram.perBankRdBursts::12            0                       # Per bank write bursts (Count)
system.mem_ctrls1.dram.perBankRdBursts::13            7                       # Per bank write bursts (Count)
system.mem_ctrls1.dram.perBankRdBursts::14           20                       # Per bank write bursts (Count)
system.mem_ctrls1.dram.perBankRdBursts::15           50                       # Per bank write bursts (Count)
system.mem_ctrls1.dram.perBankWrBursts::0            0                       # Per bank write bursts (Count)
system.mem_ctrls1.dram.perBankWrBursts::1            0                       # Per bank write bursts (Count)
system.mem_ctrls1.dram.perBankWrBursts::2            0                       # Per bank write bursts (Count)
system.mem_ctrls1.dram.perBankWrBursts::3            0                       # Per bank write bursts (Count)
system.mem_ctrls1.dram.perBankWrBursts::4            0                       # Per bank write bursts (Count)
system.mem_ctrls1.dram.perBankWrBursts::5            0                       # Per bank write bursts (Count)
system.mem_ctrls1.dram.perBankWrBursts::6            0                       # Per bank write bursts (Count)
system.mem_ctrls1.dram.perBankWrBursts::7            0                       # Per bank write bursts (Count)
system.mem_ctrls1.dram.perBankWrBursts::8            0                       # Per bank write bursts (Count)
system.mem_ctrls1.dram.perBankWrBursts::9            0                       # Per bank write bursts (Count)
system.mem_ctrls1.dram.perBankWrBursts::10            0                       # Per bank write bursts (Count)
system.mem_ctrls1.dram.perBankWrBursts::11            0                       # Per bank write bursts (Count)
system.mem_ctrls1.dram.perBankWrBursts::12            0                       # Per bank write bursts (Count)
system.mem_ctrls1.dram.perBankWrBursts::13            0                       # Per bank write bursts (Count)
system.mem_ctrls1.dram.perBankWrBursts::14            0                       # Per bank write bursts (Count)
system.mem_ctrls1.dram.perBankWrBursts::15            0                       # Per bank write bursts (Count)
system.mem_ctrls1.dram.totQLat                1881250                       # Total ticks spent queuing (Tick)
system.mem_ctrls1.dram.totBusLat              1230000                       # Total ticks spent in databus transfers (Tick)
system.mem_ctrls1.dram.totMemAccLat           6493750                       # Total ticks spent from burst creation until serviced by the DRAM (Tick)
system.mem_ctrls1.dram.avgQLat                7647.36                       # Average queueing delay per DRAM burst ((Tick/Count))
system.mem_ctrls1.dram.avgBusLat              5000.00                       # Average bus latency per DRAM burst ((Tick/Count))
system.mem_ctrls1.dram.avgMemAccLat          26397.36                       # Average memory access latency per DRAM burst ((Tick/Count))
system.mem_ctrls1.dram.readRowHits                189                       # Number of row buffer hits during reads (Count)
system.mem_ctrls1.dram.writeRowHits                 0                       # Number of row buffer hits during writes (Count)
system.mem_ctrls1.dram.readRowHitRate           76.83                       # Row buffer hit rate for reads (Ratio)
system.mem_ctrls1.dram.writeRowHitRate            nan                       # Row buffer hit rate for writes (Ratio)
system.mem_ctrls1.dram.bytesPerActivate::samples           56                       # Bytes accessed per row activation (Byte)
system.mem_ctrls1.dram.bytesPerActivate::mean   277.714286                       # Bytes accessed per row activation (Byte)
system.mem_ctrls1.dram.bytesPerActivate::gmean   174.038964                       # Bytes accessed per row activation (Byte)
system.mem_ctrls1.dram.bytesPerActivate::stdev   287.068045                       # Bytes accessed per row activation (Byte)
system.mem_ctrls1.dram.bytesPerActivate::0-127           22     39.29%     39.29% # Bytes accessed per row activation (Byte)
system.mem_ctrls1.dram.bytesPerActivate::128-255           12     21.43%     60.71% # Bytes accessed per row activation (Byte)
system.mem_ctrls1.dram.bytesPerActivate::256-383            7     12.50%     73.21% # Bytes accessed per row activation (Byte)
system.mem_ctrls1.dram.bytesPerActivate::384-511            5      8.93%     82.14% # Bytes accessed per row activation (Byte)
system.mem_ctrls1.dram.bytesPerActivate::512-639            2      3.57%     85.71% # Bytes accessed per row activation (Byte)
system.mem_ctrls1.dram.bytesPerActivate::640-767            2      3.57%     89.29% # Bytes accessed per row activation (Byte)
system.mem_ctrls1.dram.bytesPerActivate::768-895            2      3.57%     92.86% # Bytes accessed per row activation (Byte)
system.mem_ctrls1.dram.bytesPerActivate::1024-1151            4      7.14%    100.00% # Bytes accessed per row activation (Byte)
system.mem_ctrls1.dram.bytesPerActivate::total           56                       # Bytes accessed per row activation (Byte)
system.mem_ctrls1.dram.bytesRead                15744                       # Total bytes read (Byte)
system.mem_ctrls1.dram.bytesWritten                 0                       # Total bytes written (Byte)
system.mem_ctrls1.dram.avgRdBW               4.813311                       # Average DRAM read bandwidth in MiBytes/s ((Byte/Second))
system.mem_ctrls1.dram.avgWrBW                      0                       # Average DRAM write bandwidth in MiBytes/s ((Byte/Second))
system.mem_ctrls1.dram.peakBW                12800.00                       # Theoretical peak bandwidth in MiByte/s ((Byte/Second))
system.mem_ctrls1.dram.busUtil                   0.04                       # Data bus utilization in percentage (Ratio)
system.mem_ctrls1.dram.busUtilRead               0.04                       # Data bus utilization in percentage for reads (Ratio)
system.mem_ctrls1.dram.busUtilWrite              0.00                       # Data bus utilization in percentage for writes (Ratio)
system.mem_ctrls1.dram.pageHitRate              76.83                       # Row buffer hit rate, read and write combined (Ratio)
system.mem_ctrls1.dram.power_state.pwrStateResidencyTicks::UNDEFINED   3270929500                       # Cumulative time (in ticks) in various power states (Tick)
system.mem_ctrls1.dram.rank0.actEnergy         249900                       # Energy for activate commands per rank (pJ) (Joule)
system.mem_ctrls1.dram.rank0.preEnergy         129030                       # Energy for precharge commands per rank (pJ) (Joule)
system.mem_ctrls1.dram.rank0.readEnergy       1170960                       # Energy for read commands per rank (pJ) (Joule)
system.mem_ctrls1.dram.rank0.writeEnergy            0                       # Energy for write commands per rank (pJ) (Joule)
system.mem_ctrls1.dram.rank0.refreshEnergy 258148800.000000                       # Energy for refresh commands per rank (pJ) (Joule)
system.mem_ctrls1.dram.rank0.actBackEnergy     58513350                       # Energy for active background per rank (pJ) (Joule)
system.mem_ctrls1.dram.rank0.preBackEnergy   1206762720                       # Energy for precharge background per rank (pJ) (Joule)
system.mem_ctrls1.dram.rank0.actPowerDownEnergy            0                       # Energy for active power-down per rank (pJ) (Joule)
system.mem_ctrls1.dram.rank0.prePowerDownEnergy            0                       # Energy for precharge power-down per rank (pJ) (Joule)
system.mem_ctrls1.dram.rank0.selfRefreshEnergy            0                       # Energy for self refresh per rank (pJ) (Joule)
system.mem_ctrls1.dram.rank0.totalEnergy   1524974760                       # Total energy per rank (pJ) (Joule)
system.mem_ctrls1.dram.rank0.averagePower   466.220614                       # Core power per rank (mW) (Watt)
system.mem_ctrls1.dram.rank0.totalIdleTime            0                       # Total Idle time Per DRAM Rank (Tick)
system.mem_ctrls1.dram.rank0.pwrStateTime::IDLE   3136765250                       # Time in different power states (Tick)
system.mem_ctrls1.dram.rank0.pwrStateTime::REF    109200000                       # Time in different power states (Tick)
system.mem_ctrls1.dram.rank0.pwrStateTime::SREF            0                       # Time in different power states (Tick)
system.mem_ctrls1.dram.rank0.pwrStateTime::PRE_PDN            0                       # Time in different power states (Tick)
system.mem_ctrls1.dram.rank0.pwrStateTime::ACT     24964250                       # Time in different power states (Tick)
system.mem_ctrls1.dram.rank0.pwrStateTime::ACT_PDN            0                       # Time in different power states (Tick)
system.mem_ctrls1.dram.rank1.actEnergy         157080                       # Energy for activate commands per rank (pJ) (Joule)
system.mem_ctrls1.dram.rank1.preEnergy          83490                       # Energy for precharge commands per rank (pJ) (Joule)
system.mem_ctrls1.dram.rank1.readEnergy        585480                       # Energy for read commands per rank (pJ) (Joule)
system.mem_ctrls1.dram.rank1.writeEnergy            0                       # Energy for write commands per rank (pJ) (Joule)
system.mem_ctrls1.dram.rank1.refreshEnergy 258148800.000000                       # Energy for refresh commands per rank (pJ) (Joule)
system.mem_ctrls1.dram.rank1.actBackEnergy     57013110                       # Energy for active background per rank (pJ) (Joule)
system.mem_ctrls1.dram.rank1.preBackEnergy   1208026080                       # Energy for precharge background per rank (pJ) (Joule)
system.mem_ctrls1.dram.rank1.actPowerDownEnergy            0                       # Energy for active power-down per rank (pJ) (Joule)
system.mem_ctrls1.dram.rank1.prePowerDownEnergy            0                       # Energy for precharge power-down per rank (pJ) (Joule)
system.mem_ctrls1.dram.rank1.selfRefreshEnergy            0                       # Energy for self refresh per rank (pJ) (Joule)
system.mem_ctrls1.dram.rank1.totalEnergy   1524014040                       # Total energy per rank (pJ) (Joule)
system.mem_ctrls1.dram.rank1.averagePower   465.926899                       # Core power per rank (mW) (Watt)
system.mem_ctrls1.dram.rank1.totalIdleTime            0                       # Total Idle time Per DRAM Rank (Tick)
system.mem_ctrls1.dram.rank1.pwrStateTime::IDLE   3140069250                       # Time in different power states (Tick)
system.mem_ctrls1.dram.rank1.pwrStateTime::REF    109200000                       # Time in different power states (Tick)
system.mem_ctrls1.dram.rank1.pwrStateTime::SREF            0                       # Time in different power states (Tick)
system.mem_ctrls1.dram.rank1.pwrStateTime::PRE_PDN            0                       # Time in different power states (Tick)
system.mem_ctrls1.dram.rank1.pwrStateTime::ACT     21660250                       # Time in different power states (Tick)
system.mem_ctrls1.dram.rank1.pwrStateTime::ACT_PDN            0                       # Time in different power states (Tick)
system.mem_ctrls1.power_state.pwrStateResidencyTicks::UNDEFINED   3270929500                       # Cumulative time (in ticks) in various power states (Tick)
system.membus.transDist::ReadResp                 414                       # Transaction distribution (Count)
system.membus.transDist::ReadExReq                 62                       # Transaction distribution (Count)
system.membus.transDist::ReadExResp                62                       # Transaction distribution (Count)
system.membus.transDist::ReadCleanReq             414                       # Transaction distribution (Count)
system.membus.transDist::InvalidateReq            159                       # Transaction distribution (Count)
system.membus.pktCount_system.cpu_cluster.l2.mem_side_port::system.mem_ctrls0.port          540                       # Packet count per connected requestor and responder (Count)
system.membus.pktCount_system.cpu_cluster.l2.mem_side_port::system.mem_ctrls1.port          571                       # Packet count per connected requestor and responder (Count)
system.membus.pktCount_system.cpu_cluster.l2.mem_side_port::total         1111                       # Packet count per connected requestor and responder (Count)
system.membus.pktCount::total                    1111                       # Packet count per connected requestor and responder (Count)
system.membus.pktSize_system.cpu_cluster.l2.mem_side_port::system.mem_ctrls0.port        14720                       # Cumulative packet size per connected requestor and responder (Byte)
system.membus.pktSize_system.cpu_cluster.l2.mem_side_port::system.mem_ctrls1.port        15744                       # Cumulative packet size per connected requestor and responder (Byte)
system.membus.pktSize_system.cpu_cluster.l2.mem_side_port::total        30464                       # Cumulative packet size per connected requestor and responder (Byte)
system.membus.pktSize::total                    30464                       # Cumulative packet size per connected requestor and responder (Byte)
system.membus.snoops                                0                       # Total snoops (Count)
system.membus.snoopTraffic                          0                       # Total snoop traffic (Byte)
system.membus.snoopFanout::samples                635                       # Request fanout histogram (Count)
system.membus.snoopFanout::mean                     0                       # Request fanout histogram (Count)
system.membus.snoopFanout::stdev                    0                       # Request fanout histogram (Count)
system.membus.snoopFanout::underflows               0      0.00%      0.00% # Request fanout histogram (Count)
system.membus.snoopFanout::0                      635    100.00%    100.00% # Request fanout histogram (Count)
system.membus.snoopFanout::1                        0      0.00%    100.00% # Request fanout histogram (Count)
system.membus.snoopFanout::overflows                0      0.00%    100.00% # Request fanout histogram (Count)
system.membus.snoopFanout::min_value                0                       # Request fanout histogram (Count)
system.membus.snoopFanout::max_value                0                       # Request fanout histogram (Count)
system.membus.snoopFanout::total                  635                       # Request fanout histogram (Count)
system.membus.power_state.pwrStateResidencyTicks::UNDEFINED   3270929500                       # Cumulative time (in ticks) in various power states (Tick)
system.membus.reqLayer0.occupancy              432995                       # Layer occupancy (ticks) (Tick)
system.membus.reqLayer0.utilization               0.0                       # Layer utilization (Ratio)
system.membus.reqLayer1.occupancy              444996                       # Layer occupancy (ticks) (Tick)
system.membus.reqLayer1.utilization               0.0                       # Layer utilization (Ratio)
system.membus.respLayer1.occupancy            2506250                       # Layer occupancy (ticks) (Tick)
system.membus.respLayer1.utilization              0.0                       # Layer utilization (Ratio)
system.membus.snoop_filter.totRequests            635                       # Total number of requests made to the snoop filter. (Count)
system.membus.snoop_filter.hitSingleRequests            3                       # Number of requests hitting in the snoop filter with a single holder of the requested data. (Count)
system.membus.snoop_filter.hitMultiRequests            0                       # Number of requests hitting in the snoop filter with multiple (>1) holders of the requested data. (Count)
system.membus.snoop_filter.totSnoops                0                       # Total number of snoops made to the snoop filter. (Count)
system.membus.snoop_filter.hitSingleSnoops            0                       # Number of snoops hitting in the snoop filter with a single holder of the requested data. (Count)
system.membus.snoop_filter.hitMultiSnoops            0                       # Number of snoops hitting in the snoop filter with multiple (>1) holders of the requested data. (Count)
system.voltage_domain.voltage                3.300000                       # Voltage in Volts (Volt)
system.workload.inst.arm                            0                       # number of arm instructions executed (Count)
system.workload.inst.quiesce                        0                       # number of quiesce instructions executed (Count)

---------- End Simulation Statistics   ----------
