
---------- Begin Simulation Statistics ----------
simSeconds                                   0.000027                       # Number of seconds simulated (Second)
simTicks                                     27106500                       # Number of ticks simulated (Tick)
finalTick                                    27106500                       # Number of ticks from beginning of simulation (restored from checkpoints and never reset) (Tick)
simFreq                                  1000000000000                       # The number of ticks per simulated second ((Tick/Second))
hostSeconds                                      0.08                       # Real time elapsed on the host (Second)
hostTickRate                                330536881                       # The number of ticks simulated per host second (ticks/s) ((Tick/Second))
hostMemory                                    2235724                       # Number of bytes of host memory used (Byte)
simInsts                                         5454                       # Number of instructions simulated (Count)
simOps                                           6437                       # Number of ops (including micro ops) simulated (Count)
hostInstRate                                    66397                       # Simulator instruction rate (inst/s) ((Count/Second))
hostOpRate                                      78357                       # Simulator op (including micro ops) rate (op/s) ((Count/Second))
system.clk_domain.clock                          1000                       # Clock period in ticks (Tick)
system.cpu_cluster.clk_domain.clock               250                       # Clock period in ticks (Tick)
system.cpu_cluster.cpus.numCycles              108426                       # Number of cpu cycles simulated (Cycle)
system.cpu_cluster.cpus.cpi                 19.880088                       # CPI: cycles per instruction (core level) ((Cycle/Count))
system.cpu_cluster.cpus.ipc                  0.050302                       # IPC: instructions per cycle (core level) ((Count/Cycle))
system.cpu_cluster.cpus.numWorkItemsStarted            0                       # Number of work items this cpu started (Count)
system.cpu_cluster.cpus.numWorkItemsCompleted            0                       # Number of work items this cpu completed (Count)
system.cpu_cluster.cpus.branchPred.lookups         2255                       # Number of BP lookups (Count)
system.cpu_cluster.cpus.branchPred.condPredicted         1558                       # Number of conditional branches predicted (Count)
system.cpu_cluster.cpus.branchPred.condIncorrect          392                       # Number of conditional branches incorrect (Count)
system.cpu_cluster.cpus.branchPred.BTBLookups          898                       # Number of BTB lookups (Count)
system.cpu_cluster.cpus.branchPred.BTBUpdates          317                       # Number of BTB updates (Count)
system.cpu_cluster.cpus.branchPred.BTBHits          512                       # Number of BTB hits (Count)
system.cpu_cluster.cpus.branchPred.BTBHitRatio     0.570156                       # BTB Hit Ratio (Ratio)
system.cpu_cluster.cpus.branchPred.RASUsed          204                       # Number of times the RAS was used to get a target. (Count)
system.cpu_cluster.cpus.branchPred.RASIncorrect            9                       # Number of incorrect RAS predictions. (Count)
system.cpu_cluster.cpus.branchPred.indirectLookups           83                       # Number of indirect predictor lookups. (Count)
system.cpu_cluster.cpus.branchPred.indirectHits            3                       # Number of indirect target hits. (Count)
system.cpu_cluster.cpus.branchPred.indirectMisses           80                       # Number of indirect misses. (Count)
system.cpu_cluster.cpus.branchPred.indirectMispredicted           32                       # Number of mispredicted indirect branches. (Count)
system.cpu_cluster.cpus.commitStats0.numInsts         5454                       # Number of instructions committed (thread level) (Count)
system.cpu_cluster.cpus.commitStats0.numOps         6437                       # Number of ops (including micro ops) committed (thread level) (Count)
system.cpu_cluster.cpus.commitStats0.numInstsNotNOP            0                       # Number of instructions committed excluding NOPs or prefetches (Count)
system.cpu_cluster.cpus.commitStats0.numOpsNotNOP            0                       # Number of Ops (including micro ops) Simulated (Count)
system.cpu_cluster.cpus.commitStats0.cpi    19.880088                       # CPI: cycles per instruction (thread level) ((Cycle/Count))
system.cpu_cluster.cpus.commitStats0.ipc     0.050302                       # IPC: instructions per cycle (thread level) ((Count/Cycle))
system.cpu_cluster.cpus.commitStats0.numMemRefs            0                       # Number of memory references committed (Count)
system.cpu_cluster.cpus.commitStats0.numFpInsts            0                       # Number of float instructions (Count)
system.cpu_cluster.cpus.commitStats0.numIntInsts            0                       # Number of integer instructions (Count)
system.cpu_cluster.cpus.commitStats0.numLoadInsts            0                       # Number of load instructions (Count)
system.cpu_cluster.cpus.commitStats0.numStoreInsts            0                       # Number of store instructions (Count)
system.cpu_cluster.cpus.commitStats0.numVecInsts            0                       # Number of vector instructions (Count)
system.cpu_cluster.cpus.commitStats0.committedInstType::No_OpClass            6      0.09%      0.09% # Class of committed instruction. (Count)
system.cpu_cluster.cpus.commitStats0.committedInstType::IntAlu         4616     71.71%     71.80% # Class of committed instruction. (Count)
system.cpu_cluster.cpus.commitStats0.committedInstType::IntMult            3      0.05%     71.85% # Class of committed instruction. (Count)
system.cpu_cluster.cpus.commitStats0.committedInstType::IntDiv            2      0.03%     71.88% # Class of committed instruction. (Count)
system.cpu_cluster.cpus.commitStats0.committedInstType::FloatAdd            0      0.00%     71.88% # Class of committed instruction. (Count)
system.cpu_cluster.cpus.commitStats0.committedInstType::FloatCmp            0      0.00%     71.88% # Class of committed instruction. (Count)
system.cpu_cluster.cpus.commitStats0.committedInstType::FloatCvt            0      0.00%     71.88% # Class of committed instruction. (Count)
system.cpu_cluster.cpus.commitStats0.committedInstType::FloatMult            0      0.00%     71.88% # Class of committed instruction. (Count)
system.cpu_cluster.cpus.commitStats0.committedInstType::FloatMultAcc            0      0.00%     71.88% # Class of committed instruction. (Count)
system.cpu_cluster.cpus.commitStats0.committedInstType::FloatDiv            0      0.00%     71.88% # Class of committed instruction. (Count)
system.cpu_cluster.cpus.commitStats0.committedInstType::FloatMisc            0      0.00%     71.88% # Class of committed instruction. (Count)
system.cpu_cluster.cpus.commitStats0.committedInstType::FloatSqrt            0      0.00%     71.88% # Class of committed instruction. (Count)
system.cpu_cluster.cpus.commitStats0.committedInstType::SimdAdd           11      0.17%     72.05% # Class of committed instruction. (Count)
system.cpu_cluster.cpus.commitStats0.committedInstType::SimdAddAcc            0      0.00%     72.05% # Class of committed instruction. (Count)
system.cpu_cluster.cpus.commitStats0.committedInstType::SimdAlu            8      0.12%     72.18% # Class of committed instruction. (Count)
system.cpu_cluster.cpus.commitStats0.committedInstType::SimdCmp            8      0.12%     72.30% # Class of committed instruction. (Count)
system.cpu_cluster.cpus.commitStats0.committedInstType::SimdCvt            0      0.00%     72.30% # Class of committed instruction. (Count)
system.cpu_cluster.cpus.commitStats0.committedInstType::SimdMisc            8      0.12%     72.43% # Class of committed instruction. (Count)
system.cpu_cluster.cpus.commitStats0.committedInstType::SimdMult            0      0.00%     72.43% # Class of committed instruction. (Count)
system.cpu_cluster.cpus.commitStats0.committedInstType::SimdMultAcc            0      0.00%     72.43% # Class of committed instruction. (Count)
system.cpu_cluster.cpus.commitStats0.committedInstType::SimdMatMultAcc            0      0.00%     72.43% # Class of committed instruction. (Count)
system.cpu_cluster.cpus.commitStats0.committedInstType::SimdShift            0      0.00%     72.43% # Class of committed instruction. (Count)
system.cpu_cluster.cpus.commitStats0.committedInstType::SimdShiftAcc            0      0.00%     72.43% # Class of committed instruction. (Count)
system.cpu_cluster.cpus.commitStats0.committedInstType::SimdDiv            0      0.00%     72.43% # Class of committed instruction. (Count)
system.cpu_cluster.cpus.commitStats0.committedInstType::SimdSqrt            0      0.00%     72.43% # Class of committed instruction. (Count)
system.cpu_cluster.cpus.commitStats0.committedInstType::SimdFloatAdd            0      0.00%     72.43% # Class of committed instruction. (Count)
system.cpu_cluster.cpus.commitStats0.committedInstType::SimdFloatAlu            0      0.00%     72.43% # Class of committed instruction. (Count)
system.cpu_cluster.cpus.commitStats0.committedInstType::SimdFloatCmp            0      0.00%     72.43% # Class of committed instruction. (Count)
system.cpu_cluster.cpus.commitStats0.committedInstType::SimdFloatCvt            0      0.00%     72.43% # Class of committed instruction. (Count)
system.cpu_cluster.cpus.commitStats0.committedInstType::SimdFloatDiv            0      0.00%     72.43% # Class of committed instruction. (Count)
system.cpu_cluster.cpus.commitStats0.committedInstType::SimdFloatMisc            0      0.00%     72.43% # Class of committed instruction. (Count)
system.cpu_cluster.cpus.commitStats0.committedInstType::SimdFloatMult            0      0.00%     72.43% # Class of committed instruction. (Count)
system.cpu_cluster.cpus.commitStats0.committedInstType::SimdFloatMultAcc            0      0.00%     72.43% # Class of committed instruction. (Count)
system.cpu_cluster.cpus.commitStats0.committedInstType::SimdFloatMatMultAcc            0      0.00%     72.43% # Class of committed instruction. (Count)
system.cpu_cluster.cpus.commitStats0.committedInstType::SimdFloatSqrt            0      0.00%     72.43% # Class of committed instruction. (Count)
system.cpu_cluster.cpus.commitStats0.committedInstType::SimdReduceAdd            0      0.00%     72.43% # Class of committed instruction. (Count)
system.cpu_cluster.cpus.commitStats0.committedInstType::SimdReduceAlu            0      0.00%     72.43% # Class of committed instruction. (Count)
system.cpu_cluster.cpus.commitStats0.committedInstType::SimdReduceCmp            0      0.00%     72.43% # Class of committed instruction. (Count)
system.cpu_cluster.cpus.commitStats0.committedInstType::SimdFloatReduceAdd            0      0.00%     72.43% # Class of committed instruction. (Count)
system.cpu_cluster.cpus.commitStats0.committedInstType::SimdFloatReduceCmp            0      0.00%     72.43% # Class of committed instruction. (Count)
system.cpu_cluster.cpus.commitStats0.committedInstType::SimdAes            0      0.00%     72.43% # Class of committed instruction. (Count)
system.cpu_cluster.cpus.commitStats0.committedInstType::SimdAesMix            0      0.00%     72.43% # Class of committed instruction. (Count)
system.cpu_cluster.cpus.commitStats0.committedInstType::SimdSha1Hash            0      0.00%     72.43% # Class of committed instruction. (Count)
system.cpu_cluster.cpus.commitStats0.committedInstType::SimdSha1Hash2            0      0.00%     72.43% # Class of committed instruction. (Count)
system.cpu_cluster.cpus.commitStats0.committedInstType::SimdSha256Hash            0      0.00%     72.43% # Class of committed instruction. (Count)
system.cpu_cluster.cpus.commitStats0.committedInstType::SimdSha256Hash2            0      0.00%     72.43% # Class of committed instruction. (Count)
system.cpu_cluster.cpus.commitStats0.committedInstType::SimdShaSigma2            0      0.00%     72.43% # Class of committed instruction. (Count)
system.cpu_cluster.cpus.commitStats0.committedInstType::SimdShaSigma3            0      0.00%     72.43% # Class of committed instruction. (Count)
system.cpu_cluster.cpus.commitStats0.committedInstType::SimdPredAlu            0      0.00%     72.43% # Class of committed instruction. (Count)
system.cpu_cluster.cpus.commitStats0.committedInstType::Matrix            0      0.00%     72.43% # Class of committed instruction. (Count)
system.cpu_cluster.cpus.commitStats0.committedInstType::MatrixMov            0      0.00%     72.43% # Class of committed instruction. (Count)
system.cpu_cluster.cpus.commitStats0.committedInstType::MatrixOP            0      0.00%     72.43% # Class of committed instruction. (Count)
system.cpu_cluster.cpus.commitStats0.committedInstType::MemRead          738     11.46%     83.89% # Class of committed instruction. (Count)
system.cpu_cluster.cpus.commitStats0.committedInstType::MemWrite         1037     16.11%    100.00% # Class of committed instruction. (Count)
system.cpu_cluster.cpus.commitStats0.committedInstType::FloatMemRead            0      0.00%    100.00% # Class of committed instruction. (Count)
system.cpu_cluster.cpus.commitStats0.committedInstType::FloatMemWrite            0      0.00%    100.00% # Class of committed instruction. (Count)
system.cpu_cluster.cpus.commitStats0.committedInstType::IprAccess            0      0.00%    100.00% # Class of committed instruction. (Count)
system.cpu_cluster.cpus.commitStats0.committedInstType::InstPrefetch            0      0.00%    100.00% # Class of committed instruction. (Count)
system.cpu_cluster.cpus.commitStats0.committedInstType::VectorUnitStrideLoad            0      0.00%    100.00% # Class of committed instruction. (Count)
system.cpu_cluster.cpus.commitStats0.committedInstType::VectorUnitStrideStore            0      0.00%    100.00% # Class of committed instruction. (Count)
system.cpu_cluster.cpus.commitStats0.committedInstType::VectorUnitStrideMaskLoad            0      0.00%    100.00% # Class of committed instruction. (Count)
system.cpu_cluster.cpus.commitStats0.committedInstType::VectorUnitStrideMaskStore            0      0.00%    100.00% # Class of committed instruction. (Count)
system.cpu_cluster.cpus.commitStats0.committedInstType::VectorStridedLoad            0      0.00%    100.00% # Class of committed instruction. (Count)
system.cpu_cluster.cpus.commitStats0.committedInstType::VectorStridedStore            0      0.00%    100.00% # Class of committed instruction. (Count)
system.cpu_cluster.cpus.commitStats0.committedInstType::VectorIndexedLoad            0      0.00%    100.00% # Class of committed instruction. (Count)
system.cpu_cluster.cpus.commitStats0.committedInstType::VectorIndexedStore            0      0.00%    100.00% # Class of committed instruction. (Count)
system.cpu_cluster.cpus.commitStats0.committedInstType::VectorUnitStrideFaultOnlyFirstLoad            0      0.00%    100.00% # Class of committed instruction. (Count)
system.cpu_cluster.cpus.commitStats0.committedInstType::VectorWholeRegisterLoad            0      0.00%    100.00% # Class of committed instruction. (Count)
system.cpu_cluster.cpus.commitStats0.committedInstType::VectorWholeRegisterStore            0      0.00%    100.00% # Class of committed instruction. (Count)
system.cpu_cluster.cpus.commitStats0.committedInstType::VectorIntegerArith            0      0.00%    100.00% # Class of committed instruction. (Count)
system.cpu_cluster.cpus.commitStats0.committedInstType::VectorFloatArith            0      0.00%    100.00% # Class of committed instruction. (Count)
system.cpu_cluster.cpus.commitStats0.committedInstType::VectorFloatConvert            0      0.00%    100.00% # Class of committed instruction. (Count)
system.cpu_cluster.cpus.commitStats0.committedInstType::VectorIntegerReduce            0      0.00%    100.00% # Class of committed instruction. (Count)
system.cpu_cluster.cpus.commitStats0.committedInstType::VectorFloatReduce            0      0.00%    100.00% # Class of committed instruction. (Count)
system.cpu_cluster.cpus.commitStats0.committedInstType::VectorMisc            0      0.00%    100.00% # Class of committed instruction. (Count)
system.cpu_cluster.cpus.commitStats0.committedInstType::VectorIntegerExtension            0      0.00%    100.00% # Class of committed instruction. (Count)
system.cpu_cluster.cpus.commitStats0.committedInstType::VectorConfig            0      0.00%    100.00% # Class of committed instruction. (Count)
system.cpu_cluster.cpus.commitStats0.committedInstType::total         6437                       # Class of committed instruction. (Count)
system.cpu_cluster.cpus.dcache.demandHits::cpu_cluster.cpus.data         1628                       # number of demand (read+write) hits (Count)
system.cpu_cluster.cpus.dcache.demandHits::total         1628                       # number of demand (read+write) hits (Count)
system.cpu_cluster.cpus.dcache.overallHits::cpu_cluster.cpus.data         1633                       # number of overall hits (Count)
system.cpu_cluster.cpus.dcache.overallHits::total         1633                       # number of overall hits (Count)
system.cpu_cluster.cpus.dcache.demandMisses::cpu_cluster.cpus.data          239                       # number of demand (read+write) misses (Count)
system.cpu_cluster.cpus.dcache.demandMisses::total          239                       # number of demand (read+write) misses (Count)
system.cpu_cluster.cpus.dcache.overallMisses::cpu_cluster.cpus.data          241                       # number of overall misses (Count)
system.cpu_cluster.cpus.dcache.overallMisses::total          241                       # number of overall misses (Count)
system.cpu_cluster.cpus.dcache.demandMissLatency::cpu_cluster.cpus.data     14206750                       # number of demand (read+write) miss ticks (Tick)
system.cpu_cluster.cpus.dcache.demandMissLatency::total     14206750                       # number of demand (read+write) miss ticks (Tick)
system.cpu_cluster.cpus.dcache.overallMissLatency::cpu_cluster.cpus.data     14206750                       # number of overall miss ticks (Tick)
system.cpu_cluster.cpus.dcache.overallMissLatency::total     14206750                       # number of overall miss ticks (Tick)
system.cpu_cluster.cpus.dcache.demandAccesses::cpu_cluster.cpus.data         1867                       # number of demand (read+write) accesses (Count)
system.cpu_cluster.cpus.dcache.demandAccesses::total         1867                       # number of demand (read+write) accesses (Count)
system.cpu_cluster.cpus.dcache.overallAccesses::cpu_cluster.cpus.data         1874                       # number of overall (read+write) accesses (Count)
system.cpu_cluster.cpus.dcache.overallAccesses::total         1874                       # number of overall (read+write) accesses (Count)
system.cpu_cluster.cpus.dcache.demandMissRate::cpu_cluster.cpus.data     0.128013                       # miss rate for demand accesses (Ratio)
system.cpu_cluster.cpus.dcache.demandMissRate::total     0.128013                       # miss rate for demand accesses (Ratio)
system.cpu_cluster.cpus.dcache.overallMissRate::cpu_cluster.cpus.data     0.128602                       # miss rate for overall accesses (Ratio)
system.cpu_cluster.cpus.dcache.overallMissRate::total     0.128602                       # miss rate for overall accesses (Ratio)
system.cpu_cluster.cpus.dcache.demandAvgMissLatency::cpu_cluster.cpus.data 59442.468619                       # average overall miss latency in ticks ((Tick/Count))
system.cpu_cluster.cpus.dcache.demandAvgMissLatency::total 59442.468619                       # average overall miss latency in ticks ((Tick/Count))
system.cpu_cluster.cpus.dcache.overallAvgMissLatency::cpu_cluster.cpus.data 58949.170124                       # average overall miss latency ((Tick/Count))
system.cpu_cluster.cpus.dcache.overallAvgMissLatency::total 58949.170124                       # average overall miss latency ((Tick/Count))
system.cpu_cluster.cpus.dcache.blockedCycles::no_mshrs            0                       # number of cycles access was blocked (Cycle)
system.cpu_cluster.cpus.dcache.blockedCycles::no_targets            0                       # number of cycles access was blocked (Cycle)
system.cpu_cluster.cpus.dcache.blockedCauses::no_mshrs            0                       # number of times access was blocked (Count)
system.cpu_cluster.cpus.dcache.blockedCauses::no_targets            0                       # number of times access was blocked (Count)
system.cpu_cluster.cpus.dcache.avgBlocked::no_mshrs          nan                       # average number of cycles each access was blocked ((Cycle/Count))
system.cpu_cluster.cpus.dcache.avgBlocked::no_targets          nan                       # average number of cycles each access was blocked ((Cycle/Count))
system.cpu_cluster.cpus.dcache.demandMshrHits::cpu_cluster.cpus.data           77                       # number of demand (read+write) MSHR hits (Count)
system.cpu_cluster.cpus.dcache.demandMshrHits::total           77                       # number of demand (read+write) MSHR hits (Count)
system.cpu_cluster.cpus.dcache.overallMshrHits::cpu_cluster.cpus.data           77                       # number of overall MSHR hits (Count)
system.cpu_cluster.cpus.dcache.overallMshrHits::total           77                       # number of overall MSHR hits (Count)
system.cpu_cluster.cpus.dcache.demandMshrMisses::cpu_cluster.cpus.data          162                       # number of demand (read+write) MSHR misses (Count)
system.cpu_cluster.cpus.dcache.demandMshrMisses::total          162                       # number of demand (read+write) MSHR misses (Count)
system.cpu_cluster.cpus.dcache.overallMshrMisses::cpu_cluster.cpus.data          164                       # number of overall MSHR misses (Count)
system.cpu_cluster.cpus.dcache.overallMshrMisses::cpu_cluster.cpus.dcache.prefetcher           10                       # number of overall MSHR misses (Count)
system.cpu_cluster.cpus.dcache.overallMshrMisses::total          174                       # number of overall MSHR misses (Count)
system.cpu_cluster.cpus.dcache.demandMshrMissLatency::cpu_cluster.cpus.data      9930000                       # number of demand (read+write) MSHR miss ticks (Tick)
system.cpu_cluster.cpus.dcache.demandMshrMissLatency::total      9930000                       # number of demand (read+write) MSHR miss ticks (Tick)
system.cpu_cluster.cpus.dcache.overallMshrMissLatency::cpu_cluster.cpus.data     10056750                       # number of overall MSHR miss ticks (Tick)
system.cpu_cluster.cpus.dcache.overallMshrMissLatency::cpu_cluster.cpus.dcache.prefetcher       582239                       # number of overall MSHR miss ticks (Tick)
system.cpu_cluster.cpus.dcache.overallMshrMissLatency::total     10638989                       # number of overall MSHR miss ticks (Tick)
system.cpu_cluster.cpus.dcache.demandMshrMissRate::cpu_cluster.cpus.data     0.086770                       # mshr miss ratio for demand accesses (Ratio)
system.cpu_cluster.cpus.dcache.demandMshrMissRate::total     0.086770                       # mshr miss ratio for demand accesses (Ratio)
system.cpu_cluster.cpus.dcache.overallMshrMissRate::cpu_cluster.cpus.data     0.087513                       # mshr miss ratio for overall accesses (Ratio)
system.cpu_cluster.cpus.dcache.overallMshrMissRate::cpu_cluster.cpus.dcache.prefetcher          inf                       # mshr miss ratio for overall accesses (Ratio)
system.cpu_cluster.cpus.dcache.overallMshrMissRate::total     0.092850                       # mshr miss ratio for overall accesses (Ratio)
system.cpu_cluster.cpus.dcache.demandAvgMshrMissLatency::cpu_cluster.cpus.data 61296.296296                       # average overall mshr miss latency ((Tick/Count))
system.cpu_cluster.cpus.dcache.demandAvgMshrMissLatency::total 61296.296296                       # average overall mshr miss latency ((Tick/Count))
system.cpu_cluster.cpus.dcache.overallAvgMshrMissLatency::cpu_cluster.cpus.data 61321.646341                       # average overall mshr miss latency ((Tick/Count))
system.cpu_cluster.cpus.dcache.overallAvgMshrMissLatency::cpu_cluster.cpus.dcache.prefetcher 58223.900000                       # average overall mshr miss latency ((Tick/Count))
system.cpu_cluster.cpus.dcache.overallAvgMshrMissLatency::total 61143.614943                       # average overall mshr miss latency ((Tick/Count))
system.cpu_cluster.cpus.dcache.replacements            0                       # number of replacements (Count)
system.cpu_cluster.cpus.dcache.HardPFReq.mshrMisses::cpu_cluster.cpus.dcache.prefetcher           10                       # number of HardPFReq MSHR misses (Count)
system.cpu_cluster.cpus.dcache.HardPFReq.mshrMisses::total           10                       # number of HardPFReq MSHR misses (Count)
system.cpu_cluster.cpus.dcache.HardPFReq.mshrMissLatency::cpu_cluster.cpus.dcache.prefetcher       582239                       # number of HardPFReq MSHR miss ticks (Tick)
system.cpu_cluster.cpus.dcache.HardPFReq.mshrMissLatency::total       582239                       # number of HardPFReq MSHR miss ticks (Tick)
system.cpu_cluster.cpus.dcache.HardPFReq.mshrMissRate::cpu_cluster.cpus.dcache.prefetcher          inf                       # mshr miss rate for HardPFReq accesses (Ratio)
system.cpu_cluster.cpus.dcache.HardPFReq.mshrMissRate::total          inf                       # mshr miss rate for HardPFReq accesses (Ratio)
system.cpu_cluster.cpus.dcache.HardPFReq.avgMshrMissLatency::cpu_cluster.cpus.dcache.prefetcher 58223.900000                       # average HardPFReq mshr miss latency ((Tick/Count))
system.cpu_cluster.cpus.dcache.HardPFReq.avgMshrMissLatency::total 58223.900000                       # average HardPFReq mshr miss latency ((Tick/Count))
system.cpu_cluster.cpus.dcache.LoadLockedReq.hits::cpu_cluster.cpus.data            4                       # number of LoadLockedReq hits (Count)
system.cpu_cluster.cpus.dcache.LoadLockedReq.hits::total            4                       # number of LoadLockedReq hits (Count)
system.cpu_cluster.cpus.dcache.LoadLockedReq.accesses::cpu_cluster.cpus.data            4                       # number of LoadLockedReq accesses(hits+misses) (Count)
system.cpu_cluster.cpus.dcache.LoadLockedReq.accesses::total            4                       # number of LoadLockedReq accesses(hits+misses) (Count)
system.cpu_cluster.cpus.dcache.ReadReq.hits::cpu_cluster.cpus.data          761                       # number of ReadReq hits (Count)
system.cpu_cluster.cpus.dcache.ReadReq.hits::total          761                       # number of ReadReq hits (Count)
system.cpu_cluster.cpus.dcache.ReadReq.misses::cpu_cluster.cpus.data           76                       # number of ReadReq misses (Count)
system.cpu_cluster.cpus.dcache.ReadReq.misses::total           76                       # number of ReadReq misses (Count)
system.cpu_cluster.cpus.dcache.ReadReq.missLatency::cpu_cluster.cpus.data      4864000                       # number of ReadReq miss ticks (Tick)
system.cpu_cluster.cpus.dcache.ReadReq.missLatency::total      4864000                       # number of ReadReq miss ticks (Tick)
system.cpu_cluster.cpus.dcache.ReadReq.accesses::cpu_cluster.cpus.data          837                       # number of ReadReq accesses(hits+misses) (Count)
system.cpu_cluster.cpus.dcache.ReadReq.accesses::total          837                       # number of ReadReq accesses(hits+misses) (Count)
system.cpu_cluster.cpus.dcache.ReadReq.missRate::cpu_cluster.cpus.data     0.090800                       # miss rate for ReadReq accesses (Ratio)
system.cpu_cluster.cpus.dcache.ReadReq.missRate::total     0.090800                       # miss rate for ReadReq accesses (Ratio)
system.cpu_cluster.cpus.dcache.ReadReq.avgMissLatency::cpu_cluster.cpus.data        64000                       # average ReadReq miss latency ((Tick/Count))
system.cpu_cluster.cpus.dcache.ReadReq.avgMissLatency::total        64000                       # average ReadReq miss latency ((Tick/Count))
system.cpu_cluster.cpus.dcache.ReadReq.mshrHits::cpu_cluster.cpus.data            6                       # number of ReadReq MSHR hits (Count)
system.cpu_cluster.cpus.dcache.ReadReq.mshrHits::total            6                       # number of ReadReq MSHR hits (Count)
system.cpu_cluster.cpus.dcache.ReadReq.mshrMisses::cpu_cluster.cpus.data           70                       # number of ReadReq MSHR misses (Count)
system.cpu_cluster.cpus.dcache.ReadReq.mshrMisses::total           70                       # number of ReadReq MSHR misses (Count)
system.cpu_cluster.cpus.dcache.ReadReq.mshrMissLatency::cpu_cluster.cpus.data      4575500                       # number of ReadReq MSHR miss ticks (Tick)
system.cpu_cluster.cpus.dcache.ReadReq.mshrMissLatency::total      4575500                       # number of ReadReq MSHR miss ticks (Tick)
system.cpu_cluster.cpus.dcache.ReadReq.mshrMissRate::cpu_cluster.cpus.data     0.083632                       # mshr miss rate for ReadReq accesses (Ratio)
system.cpu_cluster.cpus.dcache.ReadReq.mshrMissRate::total     0.083632                       # mshr miss rate for ReadReq accesses (Ratio)
system.cpu_cluster.cpus.dcache.ReadReq.avgMshrMissLatency::cpu_cluster.cpus.data 65364.285714                       # average ReadReq mshr miss latency ((Tick/Count))
system.cpu_cluster.cpus.dcache.ReadReq.avgMshrMissLatency::total 65364.285714                       # average ReadReq mshr miss latency ((Tick/Count))
system.cpu_cluster.cpus.dcache.SoftPFReq.hits::cpu_cluster.cpus.data            5                       # number of SoftPFReq hits (Count)
system.cpu_cluster.cpus.dcache.SoftPFReq.hits::total            5                       # number of SoftPFReq hits (Count)
system.cpu_cluster.cpus.dcache.SoftPFReq.misses::cpu_cluster.cpus.data            2                       # number of SoftPFReq misses (Count)
system.cpu_cluster.cpus.dcache.SoftPFReq.misses::total            2                       # number of SoftPFReq misses (Count)
system.cpu_cluster.cpus.dcache.SoftPFReq.accesses::cpu_cluster.cpus.data            7                       # number of SoftPFReq accesses(hits+misses) (Count)
system.cpu_cluster.cpus.dcache.SoftPFReq.accesses::total            7                       # number of SoftPFReq accesses(hits+misses) (Count)
system.cpu_cluster.cpus.dcache.SoftPFReq.missRate::cpu_cluster.cpus.data     0.285714                       # miss rate for SoftPFReq accesses (Ratio)
system.cpu_cluster.cpus.dcache.SoftPFReq.missRate::total     0.285714                       # miss rate for SoftPFReq accesses (Ratio)
system.cpu_cluster.cpus.dcache.SoftPFReq.mshrMisses::cpu_cluster.cpus.data            2                       # number of SoftPFReq MSHR misses (Count)
system.cpu_cluster.cpus.dcache.SoftPFReq.mshrMisses::total            2                       # number of SoftPFReq MSHR misses (Count)
system.cpu_cluster.cpus.dcache.SoftPFReq.mshrMissLatency::cpu_cluster.cpus.data       126750                       # number of SoftPFReq MSHR miss ticks (Tick)
system.cpu_cluster.cpus.dcache.SoftPFReq.mshrMissLatency::total       126750                       # number of SoftPFReq MSHR miss ticks (Tick)
system.cpu_cluster.cpus.dcache.SoftPFReq.mshrMissRate::cpu_cluster.cpus.data     0.285714                       # mshr miss rate for SoftPFReq accesses (Ratio)
system.cpu_cluster.cpus.dcache.SoftPFReq.mshrMissRate::total     0.285714                       # mshr miss rate for SoftPFReq accesses (Ratio)
system.cpu_cluster.cpus.dcache.SoftPFReq.avgMshrMissLatency::cpu_cluster.cpus.data        63375                       # average SoftPFReq mshr miss latency ((Tick/Count))
system.cpu_cluster.cpus.dcache.SoftPFReq.avgMshrMissLatency::total        63375                       # average SoftPFReq mshr miss latency ((Tick/Count))
system.cpu_cluster.cpus.dcache.StoreCondReq.hits::cpu_cluster.cpus.data            4                       # number of StoreCondReq hits (Count)
system.cpu_cluster.cpus.dcache.StoreCondReq.hits::total            4                       # number of StoreCondReq hits (Count)
system.cpu_cluster.cpus.dcache.StoreCondReq.accesses::cpu_cluster.cpus.data            4                       # number of StoreCondReq accesses(hits+misses) (Count)
system.cpu_cluster.cpus.dcache.StoreCondReq.accesses::total            4                       # number of StoreCondReq accesses(hits+misses) (Count)
system.cpu_cluster.cpus.dcache.WriteLineReq.misses::cpu_cluster.cpus.data            7                       # number of WriteLineReq misses (Count)
system.cpu_cluster.cpus.dcache.WriteLineReq.misses::total            7                       # number of WriteLineReq misses (Count)
system.cpu_cluster.cpus.dcache.WriteLineReq.missLatency::cpu_cluster.cpus.data       291250                       # number of WriteLineReq miss ticks (Tick)
system.cpu_cluster.cpus.dcache.WriteLineReq.missLatency::total       291250                       # number of WriteLineReq miss ticks (Tick)
system.cpu_cluster.cpus.dcache.WriteLineReq.accesses::cpu_cluster.cpus.data            7                       # number of WriteLineReq accesses(hits+misses) (Count)
system.cpu_cluster.cpus.dcache.WriteLineReq.accesses::total            7                       # number of WriteLineReq accesses(hits+misses) (Count)
system.cpu_cluster.cpus.dcache.WriteLineReq.missRate::cpu_cluster.cpus.data            1                       # miss rate for WriteLineReq accesses (Ratio)
system.cpu_cluster.cpus.dcache.WriteLineReq.missRate::total            1                       # miss rate for WriteLineReq accesses (Ratio)
system.cpu_cluster.cpus.dcache.WriteLineReq.avgMissLatency::cpu_cluster.cpus.data 41607.142857                       # average WriteLineReq miss latency ((Tick/Count))
system.cpu_cluster.cpus.dcache.WriteLineReq.avgMissLatency::total 41607.142857                       # average WriteLineReq miss latency ((Tick/Count))
system.cpu_cluster.cpus.dcache.WriteLineReq.mshrHits::cpu_cluster.cpus.data            4                       # number of WriteLineReq MSHR hits (Count)
system.cpu_cluster.cpus.dcache.WriteLineReq.mshrHits::total            4                       # number of WriteLineReq MSHR hits (Count)
system.cpu_cluster.cpus.dcache.WriteLineReq.mshrMisses::cpu_cluster.cpus.data            3                       # number of WriteLineReq MSHR misses (Count)
system.cpu_cluster.cpus.dcache.WriteLineReq.mshrMisses::total            3                       # number of WriteLineReq MSHR misses (Count)
system.cpu_cluster.cpus.dcache.WriteLineReq.mshrMissLatency::cpu_cluster.cpus.data        43750                       # number of WriteLineReq MSHR miss ticks (Tick)
system.cpu_cluster.cpus.dcache.WriteLineReq.mshrMissLatency::total        43750                       # number of WriteLineReq MSHR miss ticks (Tick)
system.cpu_cluster.cpus.dcache.WriteLineReq.mshrMissRate::cpu_cluster.cpus.data     0.428571                       # mshr miss rate for WriteLineReq accesses (Ratio)
system.cpu_cluster.cpus.dcache.WriteLineReq.mshrMissRate::total     0.428571                       # mshr miss rate for WriteLineReq accesses (Ratio)
system.cpu_cluster.cpus.dcache.WriteLineReq.avgMshrMissLatency::cpu_cluster.cpus.data 14583.333333                       # average WriteLineReq mshr miss latency ((Tick/Count))
system.cpu_cluster.cpus.dcache.WriteLineReq.avgMshrMissLatency::total 14583.333333                       # average WriteLineReq mshr miss latency ((Tick/Count))
system.cpu_cluster.cpus.dcache.WriteReq.hits::cpu_cluster.cpus.data          867                       # number of WriteReq hits (Count)
system.cpu_cluster.cpus.dcache.WriteReq.hits::total          867                       # number of WriteReq hits (Count)
system.cpu_cluster.cpus.dcache.WriteReq.misses::cpu_cluster.cpus.data          156                       # number of WriteReq misses (Count)
system.cpu_cluster.cpus.dcache.WriteReq.misses::total          156                       # number of WriteReq misses (Count)
system.cpu_cluster.cpus.dcache.WriteReq.missLatency::cpu_cluster.cpus.data      9051500                       # number of WriteReq miss ticks (Tick)
system.cpu_cluster.cpus.dcache.WriteReq.missLatency::total      9051500                       # number of WriteReq miss ticks (Tick)
system.cpu_cluster.cpus.dcache.WriteReq.accesses::cpu_cluster.cpus.data         1023                       # number of WriteReq accesses(hits+misses) (Count)
system.cpu_cluster.cpus.dcache.WriteReq.accesses::total         1023                       # number of WriteReq accesses(hits+misses) (Count)
system.cpu_cluster.cpus.dcache.WriteReq.missRate::cpu_cluster.cpus.data     0.152493                       # miss rate for WriteReq accesses (Ratio)
system.cpu_cluster.cpus.dcache.WriteReq.missRate::total     0.152493                       # miss rate for WriteReq accesses (Ratio)
system.cpu_cluster.cpus.dcache.WriteReq.avgMissLatency::cpu_cluster.cpus.data 58022.435897                       # average WriteReq miss latency ((Tick/Count))
system.cpu_cluster.cpus.dcache.WriteReq.avgMissLatency::total 58022.435897                       # average WriteReq miss latency ((Tick/Count))
system.cpu_cluster.cpus.dcache.WriteReq.mshrHits::cpu_cluster.cpus.data           67                       # number of WriteReq MSHR hits (Count)
system.cpu_cluster.cpus.dcache.WriteReq.mshrHits::total           67                       # number of WriteReq MSHR hits (Count)
system.cpu_cluster.cpus.dcache.WriteReq.mshrMisses::cpu_cluster.cpus.data           89                       # number of WriteReq MSHR misses (Count)
system.cpu_cluster.cpus.dcache.WriteReq.mshrMisses::total           89                       # number of WriteReq MSHR misses (Count)
system.cpu_cluster.cpus.dcache.WriteReq.mshrMissLatency::cpu_cluster.cpus.data      5310750                       # number of WriteReq MSHR miss ticks (Tick)
system.cpu_cluster.cpus.dcache.WriteReq.mshrMissLatency::total      5310750                       # number of WriteReq MSHR miss ticks (Tick)
system.cpu_cluster.cpus.dcache.WriteReq.mshrMissRate::cpu_cluster.cpus.data     0.086999                       # mshr miss rate for WriteReq accesses (Ratio)
system.cpu_cluster.cpus.dcache.WriteReq.mshrMissRate::total     0.086999                       # mshr miss rate for WriteReq accesses (Ratio)
system.cpu_cluster.cpus.dcache.WriteReq.avgMshrMissLatency::cpu_cluster.cpus.data 59671.348315                       # average WriteReq mshr miss latency ((Tick/Count))
system.cpu_cluster.cpus.dcache.WriteReq.avgMshrMissLatency::total 59671.348315                       # average WriteReq mshr miss latency ((Tick/Count))
system.cpu_cluster.cpus.dcache.power_state.pwrStateResidencyTicks::UNDEFINED     27106500                       # Cumulative time (in ticks) in various power states (Tick)
system.cpu_cluster.cpus.dcache.prefetcher.demandMshrMisses          162                       # demands not covered by prefetchs (Count)
system.cpu_cluster.cpus.dcache.prefetcher.pfIssued           11                       # number of hwpf issued (Count)
system.cpu_cluster.cpus.dcache.prefetcher.pfUseful            4                       # number of useful prefetch (Count)
system.cpu_cluster.cpus.dcache.prefetcher.pfUsefulButMiss            0                       # number of hit on prefetch but cache block is not in an usable state (Count)
system.cpu_cluster.cpus.dcache.prefetcher.accuracy     0.363636                       # accuracy of the prefetcher (Count)
system.cpu_cluster.cpus.dcache.prefetcher.coverage     0.024096                       # coverage brought by this prefetcher (Count)
system.cpu_cluster.cpus.dcache.prefetcher.pfHitInCache            1                       # number of prefetches hitting in cache (Count)
system.cpu_cluster.cpus.dcache.prefetcher.pfHitInMSHR            0                       # number of prefetches hitting in a MSHR (Count)
system.cpu_cluster.cpus.dcache.prefetcher.pfHitInWB            0                       # number of prefetches hit in the Write Buffer (Count)
system.cpu_cluster.cpus.dcache.prefetcher.pfLate            1                       # number of late prefetches (hitting in cache, MSHR or WB) (Count)
system.cpu_cluster.cpus.dcache.prefetcher.pfIdentified           23                       # number of prefetch candidates identified (Count)
system.cpu_cluster.cpus.dcache.prefetcher.pfBufferHit            8                       # number of redundant prefetches already in prefetch queue (Count)
system.cpu_cluster.cpus.dcache.prefetcher.pfInCache            0                       # number of redundant prefetches already in cache/mshr dropped (Count)
system.cpu_cluster.cpus.dcache.prefetcher.pfRemovedDemand            0                       # number of prefetches dropped due to a demand for the same address (Count)
system.cpu_cluster.cpus.dcache.prefetcher.pfRemovedFull            0                       # number of prefetches dropped due to prefetch queue size (Count)
system.cpu_cluster.cpus.dcache.prefetcher.pfSpanPage            1                       # number of prefetches that crossed the page (Count)
system.cpu_cluster.cpus.dcache.prefetcher.pfUsefulSpanPage            0                       # number of prefetches that is useful and crossed the page (Count)
system.cpu_cluster.cpus.dcache.prefetcher.power_state.pwrStateResidencyTicks::UNDEFINED     27106500                       # Cumulative time (in ticks) in various power states (Tick)
system.cpu_cluster.cpus.dcache.tags.tagsInUse    97.831252                       # Average ticks per tags in use ((Tick/Count))
system.cpu_cluster.cpus.dcache.tags.totalRefs            0                       # Total number of references to valid blocks. (Count)
system.cpu_cluster.cpus.dcache.tags.sampledRefs            0                       # Sample count of references to valid blocks. (Count)
system.cpu_cluster.cpus.dcache.tags.avgRefs          nan                       # Average number of references to valid blocks. ((Count/Count))
system.cpu_cluster.cpus.dcache.tags.warmupTick       152500                       # The tick when the warmup percentage was hit. (Tick)
system.cpu_cluster.cpus.dcache.tags.occupancies::cpu_cluster.cpus.data    92.289002                       # Average occupied blocks per tick, per requestor ((Count/Tick))
system.cpu_cluster.cpus.dcache.tags.occupancies::cpu_cluster.cpus.dcache.prefetcher     5.542250                       # Average occupied blocks per tick, per requestor ((Count/Tick))
system.cpu_cluster.cpus.dcache.tags.avgOccs::cpu_cluster.cpus.data     0.180252                       # Average percentage of cache occupancy ((Ratio/Tick))
system.cpu_cluster.cpus.dcache.tags.avgOccs::cpu_cluster.cpus.dcache.prefetcher     0.010825                       # Average percentage of cache occupancy ((Ratio/Tick))
system.cpu_cluster.cpus.dcache.tags.avgOccs::total     0.191077                       # Average percentage of cache occupancy ((Ratio/Tick))
system.cpu_cluster.cpus.dcache.tags.occupanciesTaskId::1022           10                       # Occupied blocks per task id (Count)
system.cpu_cluster.cpus.dcache.tags.occupanciesTaskId::1024          164                       # Occupied blocks per task id (Count)
system.cpu_cluster.cpus.dcache.tags.ageTaskId_1022::1           10                       # Occupied blocks per task id, per block age (Count)
system.cpu_cluster.cpus.dcache.tags.ageTaskId_1024::0           46                       # Occupied blocks per task id, per block age (Count)
system.cpu_cluster.cpus.dcache.tags.ageTaskId_1024::1          118                       # Occupied blocks per task id, per block age (Count)
system.cpu_cluster.cpus.dcache.tags.ratioOccsTaskId::1022     0.019531                       # Ratio of occupied blocks and all blocks, per task id (Ratio)
system.cpu_cluster.cpus.dcache.tags.ratioOccsTaskId::1024     0.320312                       # Ratio of occupied blocks and all blocks, per task id (Ratio)
system.cpu_cluster.cpus.dcache.tags.tagAccesses        15230                       # Number of tag accesses (Count)
system.cpu_cluster.cpus.dcache.tags.dataAccesses        15230                       # Number of data accesses (Count)
system.cpu_cluster.cpus.dcache.tags.power_state.pwrStateResidencyTicks::UNDEFINED     27106500                       # Cumulative time (in ticks) in various power states (Tick)
system.cpu_cluster.cpus.executeStats0.numInsts            0                       # Number of executed instructions (Count)
system.cpu_cluster.cpus.executeStats0.numNop            0                       # Number of nop insts executed (Count)
system.cpu_cluster.cpus.executeStats0.numBranches            0                       # Number of branches executed (Count)
system.cpu_cluster.cpus.executeStats0.numLoadInsts            0                       # Number of load instructions executed (Count)
system.cpu_cluster.cpus.executeStats0.numStoreInsts            0                       # Number of stores executed (Count)
system.cpu_cluster.cpus.executeStats0.instRate            0                       # Inst execution rate ((Count/Cycle))
system.cpu_cluster.cpus.executeStats0.numFpRegWrites            0                       # Number of times the floating registers were written (Count)
system.cpu_cluster.cpus.executeStats0.numMemRefs            0                       # Number of memory refs (Count)
system.cpu_cluster.cpus.executeStats0.numVecAluAccesses            0                       # Number of vector alu accesses (Count)
system.cpu_cluster.cpus.executeStats0.numDiscardedOps         1201                       # Number of ops (including micro ops) which were discarded before commit (Count)
system.cpu_cluster.cpus.fetch2.intInstructions         6255                       # Number of integer instructions successfully decoded (Count)
system.cpu_cluster.cpus.fetch2.fpInstructions            0                       # Number of floating point instructions successfully decoded (Count)
system.cpu_cluster.cpus.fetch2.vecInstructions           36                       # Number of SIMD instructions successfully decoded (Count)
system.cpu_cluster.cpus.fetch2.loadInstructions         1219                       # Number of memory load instructions successfully decoded (Count)
system.cpu_cluster.cpus.fetch2.storeInstructions          633                       # Number of memory store instructions successfully decoded (Count)
system.cpu_cluster.cpus.fetch2.amoInstructions            3                       # Number of memory atomic instructions successfully decoded (Count)
system.cpu_cluster.cpus.fetchStats0.numInsts            0                       # Number of instructions fetched (thread level) (Count)
system.cpu_cluster.cpus.fetchStats0.numOps            0                       # Number of ops (including micro ops) fetched (thread level) (Count)
system.cpu_cluster.cpus.fetchStats0.fetchRate            0                       # Number of inst fetches per cycle ((Count/Cycle))
system.cpu_cluster.cpus.fetchStats0.branchRate            0                       # Number of branch fetches per cycle (Ratio)
system.cpu_cluster.cpus.fetchStats0.numFetchSuspends            0                       # Number of times Execute suspended instruction fetching (Count)
system.cpu_cluster.cpus.icache.demandHits::cpu_cluster.cpus.inst         2649                       # number of demand (read+write) hits (Count)
system.cpu_cluster.cpus.icache.demandHits::total         2649                       # number of demand (read+write) hits (Count)
system.cpu_cluster.cpus.icache.overallHits::cpu_cluster.cpus.inst         2649                       # number of overall hits (Count)
system.cpu_cluster.cpus.icache.overallHits::total         2649                       # number of overall hits (Count)
system.cpu_cluster.cpus.icache.demandMisses::cpu_cluster.cpus.inst          353                       # number of demand (read+write) misses (Count)
system.cpu_cluster.cpus.icache.demandMisses::total          353                       # number of demand (read+write) misses (Count)
system.cpu_cluster.cpus.icache.overallMisses::cpu_cluster.cpus.inst          353                       # number of overall misses (Count)
system.cpu_cluster.cpus.icache.overallMisses::total          353                       # number of overall misses (Count)
system.cpu_cluster.cpus.icache.demandMissLatency::cpu_cluster.cpus.inst     20731500                       # number of demand (read+write) miss ticks (Tick)
system.cpu_cluster.cpus.icache.demandMissLatency::total     20731500                       # number of demand (read+write) miss ticks (Tick)
system.cpu_cluster.cpus.icache.overallMissLatency::cpu_cluster.cpus.inst     20731500                       # number of overall miss ticks (Tick)
system.cpu_cluster.cpus.icache.overallMissLatency::total     20731500                       # number of overall miss ticks (Tick)
system.cpu_cluster.cpus.icache.demandAccesses::cpu_cluster.cpus.inst         3002                       # number of demand (read+write) accesses (Count)
system.cpu_cluster.cpus.icache.demandAccesses::total         3002                       # number of demand (read+write) accesses (Count)
system.cpu_cluster.cpus.icache.overallAccesses::cpu_cluster.cpus.inst         3002                       # number of overall (read+write) accesses (Count)
system.cpu_cluster.cpus.icache.overallAccesses::total         3002                       # number of overall (read+write) accesses (Count)
system.cpu_cluster.cpus.icache.demandMissRate::cpu_cluster.cpus.inst     0.117588                       # miss rate for demand accesses (Ratio)
system.cpu_cluster.cpus.icache.demandMissRate::total     0.117588                       # miss rate for demand accesses (Ratio)
system.cpu_cluster.cpus.icache.overallMissRate::cpu_cluster.cpus.inst     0.117588                       # miss rate for overall accesses (Ratio)
system.cpu_cluster.cpus.icache.overallMissRate::total     0.117588                       # miss rate for overall accesses (Ratio)
system.cpu_cluster.cpus.icache.demandAvgMissLatency::cpu_cluster.cpus.inst 58729.461756                       # average overall miss latency in ticks ((Tick/Count))
system.cpu_cluster.cpus.icache.demandAvgMissLatency::total 58729.461756                       # average overall miss latency in ticks ((Tick/Count))
system.cpu_cluster.cpus.icache.overallAvgMissLatency::cpu_cluster.cpus.inst 58729.461756                       # average overall miss latency ((Tick/Count))
system.cpu_cluster.cpus.icache.overallAvgMissLatency::total 58729.461756                       # average overall miss latency ((Tick/Count))
system.cpu_cluster.cpus.icache.blockedCycles::no_mshrs            0                       # number of cycles access was blocked (Cycle)
system.cpu_cluster.cpus.icache.blockedCycles::no_targets            0                       # number of cycles access was blocked (Cycle)
system.cpu_cluster.cpus.icache.blockedCauses::no_mshrs            0                       # number of times access was blocked (Count)
system.cpu_cluster.cpus.icache.blockedCauses::no_targets            0                       # number of times access was blocked (Count)
system.cpu_cluster.cpus.icache.avgBlocked::no_mshrs          nan                       # average number of cycles each access was blocked ((Cycle/Count))
system.cpu_cluster.cpus.icache.avgBlocked::no_targets          nan                       # average number of cycles each access was blocked ((Cycle/Count))
system.cpu_cluster.cpus.icache.demandMshrMisses::cpu_cluster.cpus.inst          353                       # number of demand (read+write) MSHR misses (Count)
system.cpu_cluster.cpus.icache.demandMshrMisses::total          353                       # number of demand (read+write) MSHR misses (Count)
system.cpu_cluster.cpus.icache.overallMshrMisses::cpu_cluster.cpus.inst          353                       # number of overall MSHR misses (Count)
system.cpu_cluster.cpus.icache.overallMshrMisses::total          353                       # number of overall MSHR misses (Count)
system.cpu_cluster.cpus.icache.demandMshrMissLatency::cpu_cluster.cpus.inst     20643500                       # number of demand (read+write) MSHR miss ticks (Tick)
system.cpu_cluster.cpus.icache.demandMshrMissLatency::total     20643500                       # number of demand (read+write) MSHR miss ticks (Tick)
system.cpu_cluster.cpus.icache.overallMshrMissLatency::cpu_cluster.cpus.inst     20643500                       # number of overall MSHR miss ticks (Tick)
system.cpu_cluster.cpus.icache.overallMshrMissLatency::total     20643500                       # number of overall MSHR miss ticks (Tick)
system.cpu_cluster.cpus.icache.demandMshrMissRate::cpu_cluster.cpus.inst     0.117588                       # mshr miss ratio for demand accesses (Ratio)
system.cpu_cluster.cpus.icache.demandMshrMissRate::total     0.117588                       # mshr miss ratio for demand accesses (Ratio)
system.cpu_cluster.cpus.icache.overallMshrMissRate::cpu_cluster.cpus.inst     0.117588                       # mshr miss ratio for overall accesses (Ratio)
system.cpu_cluster.cpus.icache.overallMshrMissRate::total     0.117588                       # mshr miss ratio for overall accesses (Ratio)
system.cpu_cluster.cpus.icache.demandAvgMshrMissLatency::cpu_cluster.cpus.inst 58480.169972                       # average overall mshr miss latency ((Tick/Count))
system.cpu_cluster.cpus.icache.demandAvgMshrMissLatency::total 58480.169972                       # average overall mshr miss latency ((Tick/Count))
system.cpu_cluster.cpus.icache.overallAvgMshrMissLatency::cpu_cluster.cpus.inst 58480.169972                       # average overall mshr miss latency ((Tick/Count))
system.cpu_cluster.cpus.icache.overallAvgMshrMissLatency::total 58480.169972                       # average overall mshr miss latency ((Tick/Count))
system.cpu_cluster.cpus.icache.replacements           61                       # number of replacements (Count)
system.cpu_cluster.cpus.icache.ReadReq.hits::cpu_cluster.cpus.inst         2649                       # number of ReadReq hits (Count)
system.cpu_cluster.cpus.icache.ReadReq.hits::total         2649                       # number of ReadReq hits (Count)
system.cpu_cluster.cpus.icache.ReadReq.misses::cpu_cluster.cpus.inst          353                       # number of ReadReq misses (Count)
system.cpu_cluster.cpus.icache.ReadReq.misses::total          353                       # number of ReadReq misses (Count)
system.cpu_cluster.cpus.icache.ReadReq.missLatency::cpu_cluster.cpus.inst     20731500                       # number of ReadReq miss ticks (Tick)
system.cpu_cluster.cpus.icache.ReadReq.missLatency::total     20731500                       # number of ReadReq miss ticks (Tick)
system.cpu_cluster.cpus.icache.ReadReq.accesses::cpu_cluster.cpus.inst         3002                       # number of ReadReq accesses(hits+misses) (Count)
system.cpu_cluster.cpus.icache.ReadReq.accesses::total         3002                       # number of ReadReq accesses(hits+misses) (Count)
system.cpu_cluster.cpus.icache.ReadReq.missRate::cpu_cluster.cpus.inst     0.117588                       # miss rate for ReadReq accesses (Ratio)
system.cpu_cluster.cpus.icache.ReadReq.missRate::total     0.117588                       # miss rate for ReadReq accesses (Ratio)
system.cpu_cluster.cpus.icache.ReadReq.avgMissLatency::cpu_cluster.cpus.inst 58729.461756                       # average ReadReq miss latency ((Tick/Count))
system.cpu_cluster.cpus.icache.ReadReq.avgMissLatency::total 58729.461756                       # average ReadReq miss latency ((Tick/Count))
system.cpu_cluster.cpus.icache.ReadReq.mshrMisses::cpu_cluster.cpus.inst          353                       # number of ReadReq MSHR misses (Count)
system.cpu_cluster.cpus.icache.ReadReq.mshrMisses::total          353                       # number of ReadReq MSHR misses (Count)
system.cpu_cluster.cpus.icache.ReadReq.mshrMissLatency::cpu_cluster.cpus.inst     20643500                       # number of ReadReq MSHR miss ticks (Tick)
system.cpu_cluster.cpus.icache.ReadReq.mshrMissLatency::total     20643500                       # number of ReadReq MSHR miss ticks (Tick)
system.cpu_cluster.cpus.icache.ReadReq.mshrMissRate::cpu_cluster.cpus.inst     0.117588                       # mshr miss rate for ReadReq accesses (Ratio)
system.cpu_cluster.cpus.icache.ReadReq.mshrMissRate::total     0.117588                       # mshr miss rate for ReadReq accesses (Ratio)
system.cpu_cluster.cpus.icache.ReadReq.avgMshrMissLatency::cpu_cluster.cpus.inst 58480.169972                       # average ReadReq mshr miss latency ((Tick/Count))
system.cpu_cluster.cpus.icache.ReadReq.avgMshrMissLatency::total 58480.169972                       # average ReadReq mshr miss latency ((Tick/Count))
system.cpu_cluster.cpus.icache.power_state.pwrStateResidencyTicks::UNDEFINED     27106500                       # Cumulative time (in ticks) in various power states (Tick)
system.cpu_cluster.cpus.icache.tags.tagsInUse   156.468638                       # Average ticks per tags in use ((Tick/Count))
system.cpu_cluster.cpus.icache.tags.totalRefs          943                       # Total number of references to valid blocks. (Count)
system.cpu_cluster.cpus.icache.tags.sampledRefs           61                       # Sample count of references to valid blocks. (Count)
system.cpu_cluster.cpus.icache.tags.avgRefs    15.459016                       # Average number of references to valid blocks. ((Count/Count))
system.cpu_cluster.cpus.icache.tags.warmupTick        78500                       # The tick when the warmup percentage was hit. (Tick)
system.cpu_cluster.cpus.icache.tags.occupancies::cpu_cluster.cpus.inst   156.468638                       # Average occupied blocks per tick, per requestor ((Count/Tick))
system.cpu_cluster.cpus.icache.tags.avgOccs::cpu_cluster.cpus.inst     0.305603                       # Average percentage of cache occupancy ((Ratio/Tick))
system.cpu_cluster.cpus.icache.tags.avgOccs::total     0.305603                       # Average percentage of cache occupancy ((Ratio/Tick))
system.cpu_cluster.cpus.icache.tags.occupanciesTaskId::1024          291                       # Occupied blocks per task id (Count)
system.cpu_cluster.cpus.icache.tags.ageTaskId_1024::0          122                       # Occupied blocks per task id, per block age (Count)
system.cpu_cluster.cpus.icache.tags.ageTaskId_1024::1          169                       # Occupied blocks per task id, per block age (Count)
system.cpu_cluster.cpus.icache.tags.ratioOccsTaskId::1024     0.568359                       # Ratio of occupied blocks and all blocks, per task id (Ratio)
system.cpu_cluster.cpus.icache.tags.tagAccesses         6356                       # Number of tag accesses (Count)
system.cpu_cluster.cpus.icache.tags.dataAccesses         6356                       # Number of data accesses (Count)
system.cpu_cluster.cpus.icache.tags.power_state.pwrStateResidencyTicks::UNDEFINED     27106500                       # Cumulative time (in ticks) in various power states (Tick)
system.cpu_cluster.cpus.mmu.alignFaults             0                       # Number of MMU faults due to alignment restrictions (Count)
system.cpu_cluster.cpus.mmu.prefetchFaults            0                       # Number of MMU faults due to prefetch (Count)
system.cpu_cluster.cpus.mmu.domainFaults            0                       # Number of MMU faults due to domain restrictions (Count)
system.cpu_cluster.cpus.mmu.permsFaults             0                       # Number of MMU faults due to permissions restrictions (Count)
system.cpu_cluster.cpus.mmu.dtb.readHits            0                       # Read hits (Count)
system.cpu_cluster.cpus.mmu.dtb.readMisses            0                       # Read misses (Count)
system.cpu_cluster.cpus.mmu.dtb.writeHits            0                       # Write hits (Count)
system.cpu_cluster.cpus.mmu.dtb.writeMisses            0                       # Write misses (Count)
system.cpu_cluster.cpus.mmu.dtb.inserts             0                       # Number of times an entry is inserted into the TLB (Count)
system.cpu_cluster.cpus.mmu.dtb.flushTlb            0                       # Number of times a TLB invalidation was requested (Count)
system.cpu_cluster.cpus.mmu.dtb.flushedEntries            0                       # Number of entries that have been flushed from TLB (Count)
system.cpu_cluster.cpus.mmu.dtb.readAccesses            0                       # Read accesses (Count)
system.cpu_cluster.cpus.mmu.dtb.writeAccesses            0                       # Write accesses (Count)
system.cpu_cluster.cpus.mmu.dtb.hits                0                       # Total TLB (inst and data) hits (Count)
system.cpu_cluster.cpus.mmu.dtb.misses              0                       # Total TLB (inst and data) misses (Count)
system.cpu_cluster.cpus.mmu.dtb.accesses            0                       # Total TLB (inst and data) accesses (Count)
system.cpu_cluster.cpus.mmu.dtb_walker.walks            0                       # Table walker walks requested (Count)
system.cpu_cluster.cpus.mmu.dtb_walker.requestOrigin_Requested::Data            0                       # Table walker requests started/completed, data/inst (Count)
system.cpu_cluster.cpus.mmu.dtb_walker.requestOrigin_Requested::Inst            0                       # Table walker requests started/completed, data/inst (Count)
system.cpu_cluster.cpus.mmu.dtb_walker.requestOrigin_Requested::total            0                       # Table walker requests started/completed, data/inst (Count)
system.cpu_cluster.cpus.mmu.dtb_walker.requestOrigin_Completed::Data            0                       # Table walker requests started/completed, data/inst (Count)
system.cpu_cluster.cpus.mmu.dtb_walker.requestOrigin_Completed::Inst            0                       # Table walker requests started/completed, data/inst (Count)
system.cpu_cluster.cpus.mmu.dtb_walker.requestOrigin_Completed::total            0                       # Table walker requests started/completed, data/inst (Count)
system.cpu_cluster.cpus.mmu.dtb_walker.requestOrigin::total            0                       # Table walker requests started/completed, data/inst (Count)
system.cpu_cluster.cpus.mmu.dtb_walker.power_state.pwrStateResidencyTicks::UNDEFINED     27106500                       # Cumulative time (in ticks) in various power states (Tick)
system.cpu_cluster.cpus.mmu.itb.instHits            0                       # Inst hits (Count)
system.cpu_cluster.cpus.mmu.itb.instMisses            0                       # Inst misses (Count)
system.cpu_cluster.cpus.mmu.itb.inserts             0                       # Number of times an entry is inserted into the TLB (Count)
system.cpu_cluster.cpus.mmu.itb.flushTlb            0                       # Number of times a TLB invalidation was requested (Count)
system.cpu_cluster.cpus.mmu.itb.flushedEntries            0                       # Number of entries that have been flushed from TLB (Count)
system.cpu_cluster.cpus.mmu.itb.instAccesses            0                       # Inst accesses (Count)
system.cpu_cluster.cpus.mmu.itb.hits                0                       # Total TLB (inst and data) hits (Count)
system.cpu_cluster.cpus.mmu.itb.misses              0                       # Total TLB (inst and data) misses (Count)
system.cpu_cluster.cpus.mmu.itb.accesses            0                       # Total TLB (inst and data) accesses (Count)
system.cpu_cluster.cpus.mmu.itb_walker.walks            0                       # Table walker walks requested (Count)
system.cpu_cluster.cpus.mmu.itb_walker.requestOrigin_Requested::Data            0                       # Table walker requests started/completed, data/inst (Count)
system.cpu_cluster.cpus.mmu.itb_walker.requestOrigin_Requested::Inst            0                       # Table walker requests started/completed, data/inst (Count)
system.cpu_cluster.cpus.mmu.itb_walker.requestOrigin_Requested::total            0                       # Table walker requests started/completed, data/inst (Count)
system.cpu_cluster.cpus.mmu.itb_walker.requestOrigin_Completed::Data            0                       # Table walker requests started/completed, data/inst (Count)
system.cpu_cluster.cpus.mmu.itb_walker.requestOrigin_Completed::Inst            0                       # Table walker requests started/completed, data/inst (Count)
system.cpu_cluster.cpus.mmu.itb_walker.requestOrigin_Completed::total            0                       # Table walker requests started/completed, data/inst (Count)
system.cpu_cluster.cpus.mmu.itb_walker.requestOrigin::total            0                       # Table walker requests started/completed, data/inst (Count)
system.cpu_cluster.cpus.mmu.itb_walker.power_state.pwrStateResidencyTicks::UNDEFINED     27106500                       # Cumulative time (in ticks) in various power states (Tick)
system.cpu_cluster.cpus.mmu.l2_shared.instHits            0                       # Inst hits (Count)
system.cpu_cluster.cpus.mmu.l2_shared.instMisses            0                       # Inst misses (Count)
system.cpu_cluster.cpus.mmu.l2_shared.inserts            0                       # Number of times an entry is inserted into the TLB (Count)
system.cpu_cluster.cpus.mmu.l2_shared.flushTlb            0                       # Number of times a TLB invalidation was requested (Count)
system.cpu_cluster.cpus.mmu.l2_shared.flushedEntries            0                       # Number of entries that have been flushed from TLB (Count)
system.cpu_cluster.cpus.mmu.l2_shared.instAccesses            0                       # Inst accesses (Count)
system.cpu_cluster.cpus.mmu.l2_shared.hits            0                       # Total TLB (inst and data) hits (Count)
system.cpu_cluster.cpus.mmu.l2_shared.misses            0                       # Total TLB (inst and data) misses (Count)
system.cpu_cluster.cpus.mmu.l2_shared.accesses            0                       # Total TLB (inst and data) accesses (Count)
system.cpu_cluster.cpus.mmu.stage2_dtb.readHits            0                       # Read hits (Count)
system.cpu_cluster.cpus.mmu.stage2_dtb.readMisses            0                       # Read misses (Count)
system.cpu_cluster.cpus.mmu.stage2_dtb.writeHits            0                       # Write hits (Count)
system.cpu_cluster.cpus.mmu.stage2_dtb.writeMisses            0                       # Write misses (Count)
system.cpu_cluster.cpus.mmu.stage2_dtb.inserts            0                       # Number of times an entry is inserted into the TLB (Count)
system.cpu_cluster.cpus.mmu.stage2_dtb.flushTlb            0                       # Number of times a TLB invalidation was requested (Count)
system.cpu_cluster.cpus.mmu.stage2_dtb.flushedEntries            0                       # Number of entries that have been flushed from TLB (Count)
system.cpu_cluster.cpus.mmu.stage2_dtb.readAccesses            0                       # Read accesses (Count)
system.cpu_cluster.cpus.mmu.stage2_dtb.writeAccesses            0                       # Write accesses (Count)
system.cpu_cluster.cpus.mmu.stage2_dtb.hits            0                       # Total TLB (inst and data) hits (Count)
system.cpu_cluster.cpus.mmu.stage2_dtb.misses            0                       # Total TLB (inst and data) misses (Count)
system.cpu_cluster.cpus.mmu.stage2_dtb.accesses            0                       # Total TLB (inst and data) accesses (Count)
system.cpu_cluster.cpus.mmu.stage2_dtb_walker.walks            0                       # Table walker walks requested (Count)
system.cpu_cluster.cpus.mmu.stage2_dtb_walker.requestOrigin_Requested::Data            0                       # Table walker requests started/completed, data/inst (Count)
system.cpu_cluster.cpus.mmu.stage2_dtb_walker.requestOrigin_Requested::Inst            0                       # Table walker requests started/completed, data/inst (Count)
system.cpu_cluster.cpus.mmu.stage2_dtb_walker.requestOrigin_Requested::total            0                       # Table walker requests started/completed, data/inst (Count)
system.cpu_cluster.cpus.mmu.stage2_dtb_walker.requestOrigin_Completed::Data            0                       # Table walker requests started/completed, data/inst (Count)
system.cpu_cluster.cpus.mmu.stage2_dtb_walker.requestOrigin_Completed::Inst            0                       # Table walker requests started/completed, data/inst (Count)
system.cpu_cluster.cpus.mmu.stage2_dtb_walker.requestOrigin_Completed::total            0                       # Table walker requests started/completed, data/inst (Count)
system.cpu_cluster.cpus.mmu.stage2_dtb_walker.requestOrigin::total            0                       # Table walker requests started/completed, data/inst (Count)
system.cpu_cluster.cpus.mmu.stage2_dtb_walker.power_state.pwrStateResidencyTicks::UNDEFINED     27106500                       # Cumulative time (in ticks) in various power states (Tick)
system.cpu_cluster.cpus.mmu.stage2_itb.instHits            0                       # Inst hits (Count)
system.cpu_cluster.cpus.mmu.stage2_itb.instMisses            0                       # Inst misses (Count)
system.cpu_cluster.cpus.mmu.stage2_itb.inserts            0                       # Number of times an entry is inserted into the TLB (Count)
system.cpu_cluster.cpus.mmu.stage2_itb.flushTlb            0                       # Number of times a TLB invalidation was requested (Count)
system.cpu_cluster.cpus.mmu.stage2_itb.flushedEntries            0                       # Number of entries that have been flushed from TLB (Count)
system.cpu_cluster.cpus.mmu.stage2_itb.instAccesses            0                       # Inst accesses (Count)
system.cpu_cluster.cpus.mmu.stage2_itb.hits            0                       # Total TLB (inst and data) hits (Count)
system.cpu_cluster.cpus.mmu.stage2_itb.misses            0                       # Total TLB (inst and data) misses (Count)
system.cpu_cluster.cpus.mmu.stage2_itb.accesses            0                       # Total TLB (inst and data) accesses (Count)
system.cpu_cluster.cpus.mmu.stage2_itb_walker.walks            0                       # Table walker walks requested (Count)
system.cpu_cluster.cpus.mmu.stage2_itb_walker.requestOrigin_Requested::Data            0                       # Table walker requests started/completed, data/inst (Count)
system.cpu_cluster.cpus.mmu.stage2_itb_walker.requestOrigin_Requested::Inst            0                       # Table walker requests started/completed, data/inst (Count)
system.cpu_cluster.cpus.mmu.stage2_itb_walker.requestOrigin_Requested::total            0                       # Table walker requests started/completed, data/inst (Count)
system.cpu_cluster.cpus.mmu.stage2_itb_walker.requestOrigin_Completed::Data            0                       # Table walker requests started/completed, data/inst (Count)
system.cpu_cluster.cpus.mmu.stage2_itb_walker.requestOrigin_Completed::Inst            0                       # Table walker requests started/completed, data/inst (Count)
system.cpu_cluster.cpus.mmu.stage2_itb_walker.requestOrigin_Completed::total            0                       # Table walker requests started/completed, data/inst (Count)
system.cpu_cluster.cpus.mmu.stage2_itb_walker.requestOrigin::total            0                       # Table walker requests started/completed, data/inst (Count)
system.cpu_cluster.cpus.mmu.stage2_itb_walker.power_state.pwrStateResidencyTicks::UNDEFINED     27106500                       # Cumulative time (in ticks) in various power states (Tick)
system.cpu_cluster.cpus.power_state.pwrStateResidencyTicks::ON     27106500                       # Cumulative time (in ticks) in various power states (Tick)
system.cpu_cluster.cpus.thread_0.numInsts         5454                       # Number of Instructions committed (Count)
system.cpu_cluster.cpus.thread_0.numOps          6437                       # Number of Ops committed (Count)
system.cpu_cluster.cpus.thread_0.numMemRefs            0                       # Number of Memory References (Count)
system.cpu_cluster.cpus.workload.numSyscalls            7                       # Number of system calls (Count)
system.cpu_cluster.l2.demandHits::cpu_cluster.cpus.inst           10                       # number of demand (read+write) hits (Count)
system.cpu_cluster.l2.demandHits::total            10                       # number of demand (read+write) hits (Count)
system.cpu_cluster.l2.overallHits::cpu_cluster.cpus.inst           10                       # number of overall hits (Count)
system.cpu_cluster.l2.overallHits::total           10                       # number of overall hits (Count)
system.cpu_cluster.l2.demandMisses::cpu_cluster.cpus.inst          343                       # number of demand (read+write) misses (Count)
system.cpu_cluster.l2.demandMisses::cpu_cluster.cpus.data          161                       # number of demand (read+write) misses (Count)
system.cpu_cluster.l2.demandMisses::cpu_cluster.cpus.dcache.prefetcher           10                       # number of demand (read+write) misses (Count)
system.cpu_cluster.l2.demandMisses::total          514                       # number of demand (read+write) misses (Count)
system.cpu_cluster.l2.overallMisses::cpu_cluster.cpus.inst          343                       # number of overall misses (Count)
system.cpu_cluster.l2.overallMisses::cpu_cluster.cpus.data          161                       # number of overall misses (Count)
system.cpu_cluster.l2.overallMisses::cpu_cluster.cpus.dcache.prefetcher           10                       # number of overall misses (Count)
system.cpu_cluster.l2.overallMisses::total          514                       # number of overall misses (Count)
system.cpu_cluster.l2.demandMissLatency::cpu_cluster.cpus.inst     20432250                       # number of demand (read+write) miss ticks (Tick)
system.cpu_cluster.l2.demandMissLatency::cpu_cluster.cpus.data      9931000                       # number of demand (read+write) miss ticks (Tick)
system.cpu_cluster.l2.demandMissLatency::cpu_cluster.cpus.dcache.prefetcher       579241                       # number of demand (read+write) miss ticks (Tick)
system.cpu_cluster.l2.demandMissLatency::total     30942491                       # number of demand (read+write) miss ticks (Tick)
system.cpu_cluster.l2.overallMissLatency::cpu_cluster.cpus.inst     20432250                       # number of overall miss ticks (Tick)
system.cpu_cluster.l2.overallMissLatency::cpu_cluster.cpus.data      9931000                       # number of overall miss ticks (Tick)
system.cpu_cluster.l2.overallMissLatency::cpu_cluster.cpus.dcache.prefetcher       579241                       # number of overall miss ticks (Tick)
system.cpu_cluster.l2.overallMissLatency::total     30942491                       # number of overall miss ticks (Tick)
system.cpu_cluster.l2.demandAccesses::cpu_cluster.cpus.inst          353                       # number of demand (read+write) accesses (Count)
system.cpu_cluster.l2.demandAccesses::cpu_cluster.cpus.data          161                       # number of demand (read+write) accesses (Count)
system.cpu_cluster.l2.demandAccesses::cpu_cluster.cpus.dcache.prefetcher           10                       # number of demand (read+write) accesses (Count)
system.cpu_cluster.l2.demandAccesses::total          524                       # number of demand (read+write) accesses (Count)
system.cpu_cluster.l2.overallAccesses::cpu_cluster.cpus.inst          353                       # number of overall (read+write) accesses (Count)
system.cpu_cluster.l2.overallAccesses::cpu_cluster.cpus.data          161                       # number of overall (read+write) accesses (Count)
system.cpu_cluster.l2.overallAccesses::cpu_cluster.cpus.dcache.prefetcher           10                       # number of overall (read+write) accesses (Count)
system.cpu_cluster.l2.overallAccesses::total          524                       # number of overall (read+write) accesses (Count)
system.cpu_cluster.l2.demandMissRate::cpu_cluster.cpus.inst     0.971671                       # miss rate for demand accesses (Ratio)
system.cpu_cluster.l2.demandMissRate::cpu_cluster.cpus.data            1                       # miss rate for demand accesses (Ratio)
system.cpu_cluster.l2.demandMissRate::cpu_cluster.cpus.dcache.prefetcher            1                       # miss rate for demand accesses (Ratio)
system.cpu_cluster.l2.demandMissRate::total     0.980916                       # miss rate for demand accesses (Ratio)
system.cpu_cluster.l2.overallMissRate::cpu_cluster.cpus.inst     0.971671                       # miss rate for overall accesses (Ratio)
system.cpu_cluster.l2.overallMissRate::cpu_cluster.cpus.data            1                       # miss rate for overall accesses (Ratio)
system.cpu_cluster.l2.overallMissRate::cpu_cluster.cpus.dcache.prefetcher            1                       # miss rate for overall accesses (Ratio)
system.cpu_cluster.l2.overallMissRate::total     0.980916                       # miss rate for overall accesses (Ratio)
system.cpu_cluster.l2.demandAvgMissLatency::cpu_cluster.cpus.inst 59569.241983                       # average overall miss latency in ticks ((Tick/Count))
system.cpu_cluster.l2.demandAvgMissLatency::cpu_cluster.cpus.data 61683.229814                       # average overall miss latency in ticks ((Tick/Count))
system.cpu_cluster.l2.demandAvgMissLatency::cpu_cluster.cpus.dcache.prefetcher 57924.100000                       # average overall miss latency in ticks ((Tick/Count))
system.cpu_cluster.l2.demandAvgMissLatency::total 60199.398833                       # average overall miss latency in ticks ((Tick/Count))
system.cpu_cluster.l2.overallAvgMissLatency::cpu_cluster.cpus.inst 59569.241983                       # average overall miss latency ((Tick/Count))
system.cpu_cluster.l2.overallAvgMissLatency::cpu_cluster.cpus.data 61683.229814                       # average overall miss latency ((Tick/Count))
system.cpu_cluster.l2.overallAvgMissLatency::cpu_cluster.cpus.dcache.prefetcher 57924.100000                       # average overall miss latency ((Tick/Count))
system.cpu_cluster.l2.overallAvgMissLatency::total 60199.398833                       # average overall miss latency ((Tick/Count))
system.cpu_cluster.l2.blockedCycles::no_mshrs            0                       # number of cycles access was blocked (Cycle)
system.cpu_cluster.l2.blockedCycles::no_targets            0                       # number of cycles access was blocked (Cycle)
system.cpu_cluster.l2.blockedCauses::no_mshrs            0                       # number of times access was blocked (Count)
system.cpu_cluster.l2.blockedCauses::no_targets            0                       # number of times access was blocked (Count)
system.cpu_cluster.l2.avgBlocked::no_mshrs          nan                       # average number of cycles each access was blocked ((Cycle/Count))
system.cpu_cluster.l2.avgBlocked::no_targets          nan                       # average number of cycles each access was blocked ((Cycle/Count))
[...]
system.mem_ctrls1.dram.bwRead::cpu_cluster.cpus.dcache.prefetcher       429071                       # Total read bandwidth from this memory ((Byte/Second))
system.mem_ctrls1.dram.bwRead::total         56994997                       # Total read bandwidth from this memory ((Byte/Second))
system.mem_ctrls1.dram.bwInstRead::cpu_cluster.cpus.inst     13515752                       # Instruction read bandwidth from this memory ((Byte/Second))
system.mem_ctrls1.dram.bwInstRead::total     13515752                       # Instruction read bandwidth from this memory ((Byte/Second))
system.mem_ctrls1.dram.bwTotal::cpu_cluster.cpus.inst     13515752                       # Total bandwidth to/from this memory ((Byte/Second))
system.mem_ctrls1.dram.bwTotal::cpu_cluster.cpus.data     43050173                       # Total bandwidth to/from this memory ((Byte/Second))
system.mem_ctrls1.dram.bwTotal::cpu_cluster.cpus.dcache.prefetcher       429071                       # Total bandwidth to/from this memory ((Byte/Second))
system.mem_ctrls1.dram.bwTotal::total        56994997                       # Total bandwidth to/from this memory ((Byte/Second))
system.mem_ctrls1.dram.readBursts                 798                       # Number of DRAM read bursts (Count)
system.mem_ctrls1.dram.writeBursts                  0                       # Number of DRAM write bursts (Count)
system.mem_ctrls1.dram.perBankRdBursts::0          159                       # Per bank write bursts (Count)
system.mem_ctrls1.dram.perBankRdBursts::1          143                       # Per bank write bursts (Count)
system.mem_ctrls1.dram.perBankRdBursts::2          117                       # Per bank write bursts (Count)
system.mem_ctrls1.dram.perBankRdBursts::3           52                       # Per bank write bursts (Count)
system.mem_ctrls1.dram.perBankRdBursts::4           50                       # Per bank write bursts (Count)
system.mem_ctrls1.dram.perBankRdBursts::5           26                       # Per bank write bursts (Count)
system.mem_ctrls1.dram.perBankRdBursts::6           34                       # Per bank write bursts (Count)
system.mem_ctrls1.dram.perBankRdBursts::7            0                       # Per bank write bursts (Count)
system.mem_ctrls1.dram.perBankRdBursts::8            0                       # Per bank write bursts (Count)
system.mem_ctrls1.dram.perBankRdBursts::9            3                       # Per bank write bursts (Count)
system.mem_ctrls1.dram.perBankRdBursts::10            0                       # Per bank write bursts (Count)
system.mem_ctrls1.dram.perBankRdBursts::11            1                       # Per bank write bursts (Count)
system.mem_ctrls1.dram.perBankRdBursts::12            0                       # Per bank write bursts (Count)
system.mem_ctrls1.dram.perBankRdBursts::13            8                       # Per bank write bursts (Count)
system.mem_ctrls1.dram.perBankRdBursts::14           58                       # Per bank write bursts (Count)
system.mem_ctrls1.dram.perBankRdBursts::15          147                       # Per bank write bursts (Count)
system.mem_ctrls1.dram.perBankWrBursts::0            0                       # Per bank write bursts (Count)
system.mem_ctrls1.dram.perBankWrBursts::1            0                       # Per bank write bursts (Count)
system.mem_ctrls1.dram.perBankWrBursts::2            0                       # Per bank write bursts (Count)
system.mem_ctrls1.dram.perBankWrBursts::3            0                       # Per bank write bursts (Count)
system.mem_ctrls1.dram.perBankWrBursts::4            0                       # Per bank write bursts (Count)
system.mem_ctrls1.dram.perBankWrBursts::5            0                       # Per bank write bursts (Count)
system.mem_ctrls1.dram.perBankWrBursts::6            0                       # Per bank write bursts (Count)
system.mem_ctrls1.dram.perBankWrBursts::7            0                       # Per bank write bursts (Count)
system.mem_ctrls1.dram.perBankWrBursts::8            0                       # Per bank write bursts (Count)
system.mem_ctrls1.dram.perBankWrBursts::9            0                       # Per bank write bursts (Count)
system.mem_ctrls1.dram.perBankWrBursts::10            0                       # Per bank write bursts (Count)
system.mem_ctrls1.dram.perBankWrBursts::11            0                       # Per bank write bursts (Count)
system.mem_ctrls1.dram.perBankWrBursts::12            0                       # Per bank write bursts (Count)
system.mem_ctrls1.dram.perBankWrBursts::13            0                       # Per bank write bursts (Count)
system.mem_ctrls1.dram.perBankWrBursts::14            0                       # Per bank write bursts (Count)
system.mem_ctrls1.dram.perBankWrBursts::15            0                       # Per bank write bursts (Count)
system.mem_ctrls1.dram.totQLat                3004000                       # Total ticks spent queuing (Tick)
system.mem_ctrls1.dram.totBusLat              3990000                       # Total ticks spent in databus transfers (Tick)
system.mem_ctrls1.dram.totMemAccLat          17966500                       # Total ticks spent from burst creation until serviced by the DRAM (Tick)
system.mem_ctrls1.dram.avgQLat                3764.41                       # Average queueing delay per DRAM burst ((Tick/Count))
system.mem_ctrls1.dram.avgBusLat              5000.00                       # Average bus latency per DRAM burst ((Tick/Count))
system.mem_ctrls1.dram.avgMemAccLat          22514.41                       # Average memory access latency per DRAM burst ((Tick/Count))
system.mem_ctrls1.dram.readRowHits                693                       # Number of row buffer hits during reads (Count)
system.mem_ctrls1.dram.writeRowHits                 0                       # Number of row buffer hits during writes (Count)
system.mem_ctrls1.dram.readRowHitRate           86.84                       # Row buffer hit rate for reads (Ratio)
system.mem_ctrls1.dram.writeRowHitRate            nan                       # Row buffer hit rate for writes (Ratio)
system.mem_ctrls1.dram.bytesPerActivate::samples           98                       # Bytes accessed per row activation (Byte)
system.mem_ctrls1.dram.bytesPerActivate::mean   506.775510                       # Bytes accessed per row activation (Byte)
system.mem_ctrls1.dram.bytesPerActivate::gmean   336.073660                       # Bytes accessed per row activation (Byte)
system.mem_ctrls1.dram.bytesPerActivate::stdev   391.155163                       # Bytes accessed per row activation (Byte)
system.mem_ctrls1.dram.bytesPerActivate::0-127           15     15.31%     15.31% # Bytes accessed per row activation (Byte)
system.mem_ctrls1.dram.bytesPerActivate::128-255           18     18.37%     33.67% # Bytes accessed per row activation (Byte)
system.mem_ctrls1.dram.bytesPerActivate::256-383           14     14.29%     47.96% # Bytes accessed per row activation (Byte)
system.mem_ctrls1.dram.bytesPerActivate::384-511           12     12.24%     60.20% # Bytes accessed per row activation (Byte)
system.mem_ctrls1.dram.bytesPerActivate::512-639            2      2.04%     62.24% # Bytes accessed per row activation (Byte)
system.mem_ctrls1.dram.bytesPerActivate::640-767            3      3.06%     65.31% # Bytes accessed per row activation (Byte)
system.mem_ctrls1.dram.bytesPerActivate::768-895            1      1.02%     66.33% # Bytes accessed per row activation (Byte)
system.mem_ctrls1.dram.bytesPerActivate::896-1023            3      3.06%     69.39% # Bytes accessed per row activation (Byte)
system.mem_ctrls1.dram.bytesPerActivate::1024-1151           30     30.61%    100.00% # Bytes accessed per row activation (Byte)
system.mem_ctrls1.dram.bytesPerActivate::total           98                       # Bytes accessed per row activation (Byte)
system.mem_ctrls1.dram.bytesRead                51072                       # Total bytes read (Byte)
system.mem_ctrls1.dram.bytesWritten                 0                       # Total bytes written (Byte)
system.mem_ctrls1.dram.avgRdBW              57.066509                       # Average DRAM read bandwidth in MiBytes/s ((Byte/Second))
system.mem_ctrls1.dram.avgWrBW                      0                       # Average DRAM write bandwidth in MiBytes/s ((Byte/Second))
system.mem_ctrls1.dram.peakBW                12800.00                       # Theoretical peak bandwidth in MiByte/s ((Byte/Second))
system.mem_ctrls1.dram.busUtil                   0.45                       # Data bus utilization in percentage (Ratio)
system.mem_ctrls1.dram.busUtilRead               0.45                       # Data bus utilization in percentage for reads (Ratio)
system.mem_ctrls1.dram.busUtilWrite              0.00                       # Data bus utilization in percentage for writes (Ratio)
system.mem_ctrls1.dram.pageHitRate              86.84                       # Row buffer hit rate, read and write combined (Ratio)
system.mem_ctrls1.dram.power_state.pwrStateResidencyTicks::UNDEFINED    894955750                       # Cumulative time (in ticks) in various power states (Tick)
system.mem_ctrls1.dram.rank0.actEnergy         578340                       # Energy for activate commands per rank (pJ) (Joule)
system.mem_ctrls1.dram.rank0.preEnergy         288420                       # Energy for precharge commands per rank (pJ) (Joule)
system.mem_ctrls1.dram.rank0.readEnergy       4148340                       # Energy for read commands per rank (pJ) (Joule)
system.mem_ctrls1.dram.rank0.writeEnergy            0                       # Energy for write commands per rank (pJ) (Joule)
system.mem_ctrls1.dram.rank0.refreshEnergy 70068960.000000                       # Energy for refresh commands per rank (pJ) (Joule)
system.mem_ctrls1.dram.rank0.actBackEnergy     73142400                       # Energy for active background per rank (pJ) (Joule)
system.mem_ctrls1.dram.rank0.preBackEnergy    282069600                       # Energy for precharge background per rank (pJ) (Joule)
system.mem_ctrls1.dram.rank0.actPowerDownEnergy            0                       # Energy for active power-down per rank (pJ) (Joule)
system.mem_ctrls1.dram.rank0.prePowerDownEnergy            0                       # Energy for precharge power-down per rank (pJ) (Joule)
system.mem_ctrls1.dram.rank0.selfRefreshEnergy            0                       # Energy for self refresh per rank (pJ) (Joule)
system.mem_ctrls1.dram.rank0.totalEnergy    430296060                       # Total energy per rank (pJ) (Joule)
system.mem_ctrls1.dram.rank0.averagePower   480.801492                       # Core power per rank (mW) (Watt)
system.mem_ctrls1.dram.rank0.totalIdleTime            0                       # Total Idle time Per DRAM Rank (Tick)
system.mem_ctrls1.dram.rank0.pwrStateTime::IDLE    732484250                       # Time in different power states (Tick)
system.mem_ctrls1.dram.rank0.pwrStateTime::REF     29640000                       # Time in different power states (Tick)
system.mem_ctrls1.dram.rank0.pwrStateTime::SREF            0                       # Time in different power states (Tick)
system.mem_ctrls1.dram.rank0.pwrStateTime::PRE_PDN            0                       # Time in different power states (Tick)
system.mem_ctrls1.dram.rank0.pwrStateTime::ACT    132831500                       # Time in different power states (Tick)
system.mem_ctrls1.dram.rank0.pwrStateTime::ACT_PDN            0                       # Time in different power states (Tick)
system.mem_ctrls1.dram.rank1.actEnergy         171360                       # Energy for activate commands per rank (pJ) (Joule)
system.mem_ctrls1.dram.rank1.preEnergy          83490                       # Energy for precharge commands per rank (pJ) (Joule)
system.mem_ctrls1.dram.rank1.readEnergy       1549380                       # Energy for read commands per rank (pJ) (Joule)
system.mem_ctrls1.dram.rank1.writeEnergy            0                       # Energy for write commands per rank (pJ) (Joule)
system.mem_ctrls1.dram.rank1.refreshEnergy 70068960.000000                       # Energy for refresh commands per rank (pJ) (Joule)
system.mem_ctrls1.dram.rank1.actBackEnergy     32764170                       # Energy for active background per rank (pJ) (Joule)
system.mem_ctrls1.dram.rank1.preBackEnergy    316072320                       # Energy for precharge background per rank (pJ) (Joule)
system.mem_ctrls1.dram.rank1.actPowerDownEnergy            0                       # Energy for active power-down per rank (pJ) (Joule)
system.mem_ctrls1.dram.rank1.prePowerDownEnergy            0                       # Energy for precharge power-down per rank (pJ) (Joule)
system.mem_ctrls1.dram.rank1.selfRefreshEnergy            0                       # Energy for self refresh per rank (pJ) (Joule)
system.mem_ctrls1.dram.rank1.totalEnergy    420709680                       # Total energy per rank (pJ) (Joule)
system.mem_ctrls1.dram.rank1.averagePower   470.089923                       # Core power per rank (mW) (Watt)
system.mem_ctrls1.dram.rank1.totalIdleTime            0                       # Total Idle time Per DRAM Rank (Tick)
system.mem_ctrls1.dram.rank1.pwrStateTime::IDLE    821371250                       # Time in different power states (Tick)
system.mem_ctrls1.dram.rank1.pwrStateTime::REF     29640000                       # Time in different power states (Tick)
system.mem_ctrls1.dram.rank1.pwrStateTime::SREF            0                       # Time in different power states (Tick)
system.mem_ctrls1.dram.rank1.pwrStateTime::PRE_PDN            0                       # Time in different power states (Tick)
system.mem_ctrls1.dram.rank1.pwrStateTime::ACT     43944500                       # Time in different power states (Tick)
system.mem_ctrls1.dram.rank1.pwrStateTime::ACT_PDN            0                       # Time in different power states (Tick)
system.mem_ctrls1.power_state.pwrStateResidencyTicks::UNDEFINED    894955750                       # Cumulative time (in ticks) in various power states (Tick)
system.membus.transDist::ReadResp                 491                       # Transaction distribution (Count)
system.membus.transDist::ReadExReq               1112                       # Transaction distribution (Count)
system.membus.transDist::ReadExResp              1112                       # Transaction distribution (Count)
system.membus.transDist::ReadSharedReq            492                       # Transaction distribution (Count)
system.membus.transDist::InvalidateReq              3                       # Transaction distribution (Count)
system.membus.pktCount_system.cpu_cluster.l2.mem_side_port::system.mem_ctrls0.port         1614                       # Packet count per connected requestor and responder (Count)
system.membus.pktCount_system.cpu_cluster.l2.mem_side_port::system.mem_ctrls1.port         1596                       # Packet count per connected requestor and responder (Count)
system.membus.pktCount_system.cpu_cluster.l2.mem_side_port::total         3210                       # Packet count per connected requestor and responder (Count)
system.membus.pktCount::total                    3210                       # Packet count per connected requestor and responder (Count)
system.membus.pktSize_system.cpu_cluster.l2.mem_side_port::system.mem_ctrls0.port        51584                       # Cumulative packet size per connected requestor and responder (Byte)
system.membus.pktSize_system.cpu_cluster.l2.mem_side_port::system.mem_ctrls1.port        51008                       # Cumulative packet size per connected requestor and responder (Byte)
system.membus.pktSize_system.cpu_cluster.l2.mem_side_port::total       102592                       # Cumulative packet size per connected requestor and responder (Byte)
system.membus.pktSize::total                   102592                       # Cumulative packet size per connected requestor and responder (Byte)
system.membus.snoops                                0                       # Total snoops (Count)
system.membus.snoopTraffic                          0                       # Total snoop traffic (Byte)
system.membus.snoopFanout::samples               1607                       # Request fanout histogram (Count)
system.membus.snoopFanout::mean                     0                       # Request fanout histogram (Count)
system.membus.snoopFanout::stdev                    0                       # Request fanout histogram (Count)
system.membus.snoopFanout::underflows               0      0.00%      0.00% # Request fanout histogram (Count)
system.membus.snoopFanout::0                     1607    100.00%    100.00% # Request fanout histogram (Count)
system.membus.snoopFanout::1                        0      0.00%    100.00% # Request fanout histogram (Count)
system.membus.snoopFanout::overflows                0      0.00%    100.00% # Request fanout histogram (Count)
system.membus.snoopFanout::min_value                0                       # Request fanout histogram (Count)
system.membus.snoopFanout::max_value                0                       # Request fanout histogram (Count)
system.membus.snoopFanout::total                 1607                       # Request fanout histogram (Count)
system.membus.power_state.pwrStateResidencyTicks::UNDEFINED    894955750                       # Cumulative time (in ticks) in various power states (Tick)
system.membus.reqLayer0.occupancy             1082004                       # Layer occupancy (ticks) (Tick)
system.membus.reqLayer0.utilization               0.0                       # Layer utilization (Ratio)
system.membus.reqLayer1.occupancy             1066255                       # Layer occupancy (ticks) (Tick)
system.membus.reqLayer1.utilization               0.0                       # Layer utilization (Ratio)
system.membus.respLayer1.occupancy            8464500                       # Layer occupancy (ticks) (Tick)
system.membus.respLayer1.utilization              0.0                       # Layer utilization (Ratio)
system.membus.snoop_filter.totRequests           1607                       # Total number of requests made to the snoop filter. (Count)
system.membus.snoop_filter.hitSingleRequests            0                       # Number of requests hitting in the snoop filter with a single holder of the requested data. (Count)
system.membus.snoop_filter.hitMultiRequests            0                       # Number of requests hitting in the snoop filter with multiple (>1) holders of the requested data. (Count)
system.membus.snoop_filter.totSnoops                0                       # Total number of snoops made to the snoop filter. (Count)
system.membus.snoop_filter.hitSingleSnoops            0                       # Number of snoops hitting in the snoop filter with a single holder of the requested data. (Count)
system.membus.snoop_filter.hitMultiSnoops            0                       # Number of snoops hitting in the snoop filter with multiple (>1) holders of the requested data. (Count)
system.voltage_domain.voltage                3.300000                       # Voltage in Volts (Volt)
system.workload.inst.arm                            0                       # number of arm instructions executed (Count)
system.workload.inst.quiesce                        0                       # number of quiesce instructions executed (Count)
system.cpu_cluster.cpus.idleCycles             321939                       # Total number of cycles that the object has spent stopped (Unspecified)
system.cpu_cluster.cpus.tickCycles            3257884                       # Number of cycles that the object actually ticked (Unspecified)

---------- End Simulation Statistics   ----------
