
---------- Begin Simulation Statistics ----------
simSeconds                                   0.000027                       # Number of seconds simulated (Second)
simTicks                                     27416500                       # Number of ticks simulated (Tick)
finalTick                                    27416500                       # Number of ticks from beginning of simulation (restored from checkpoints and never reset) (Tick)
simFreq                                  1000000000000                       # The number of ticks per simulated second ((Tick/Second))
hostSeconds                                      0.08                       # Real time elapsed on the host (Second)
hostTickRate                                348464358                       # The number of ticks simulated per host second (ticks/s) ((Tick/Second))
hostMemory                                    2235724                       # Number of bytes of host memory used (Byte)
simInsts                                         5397                       # Number of instructions simulated (Count)
simOps                                           6377                       # Number of ops (including micro ops) simulated (Count)
hostInstRate                                    68512                       # Simulator instruction rate (inst/s) ((Count/Second))
hostOpRate                                      80945                       # Simulator op (including micro ops) rate (op/s) ((Count/Second))
system.clk_domain.clock                          1000                       # Clock period in ticks (Tick)
system.cpu_cluster.clk_domain.clock               250                       # Clock period in ticks (Tick)
system.cpu_cluster.cpus.numCycles              109666                       # Number of cpu cycles simulated (Cycle)
system.cpu_cluster.cpus.cpi                 20.319807                       # CPI: cycles per instruction (core level) ((Cycle/Count))
system.cpu_cluster.cpus.ipc                  0.049213                       # IPC: instructions per cycle (core level) ((Count/Cycle))
system.cpu_cluster.cpus.numWorkItemsStarted            0                       # Number of work items this cpu started (Count)
system.cpu_cluster.cpus.numWorkItemsCompleted            0                       # Number of work items this cpu completed (Count)
system.cpu_cluster.cpus.branchPred.lookups         2268                       # Number of BP lookups (Count)
system.cpu_cluster.cpus.branchPred.condPredicted         1557                       # Number of conditional branches predicted (Count)
system.cpu_cluster.cpus.branchPred.condIncorrect          390                       # Number of conditional branches incorrect (Count)
system.cpu_cluster.cpus.branchPred.BTBLookups          902                       # Number of BTB lookups (Count)
system.cpu_cluster.cpus.branchPred.BTBUpdates          317                       # Number of BTB updates (Count)
system.cpu_cluster.cpus.branchPred.BTBHits          506                       # Number of BTB hits (Count)
system.cpu_cluster.cpus.branchPred.BTBHitRatio     0.560976                       # BTB Hit Ratio (Ratio)
system.cpu_cluster.cpus.branchPred.RASUsed          205                       # Number of times the RAS was used to get a target. (Count)
system.cpu_cluster.cpus.branchPred.RASIncorrect            9                       # Number of incorrect RAS predictions. (Count)
system.cpu_cluster.cpus.branchPred.indirectLookups           88                       # Number of indirect predictor lookups. (Count)
system.cpu_cluster.cpus.branchPred.indirectHits            1                       # Number of indirect target hits. (Count)
system.cpu_cluster.cpus.branchPred.indirectMisses           87                       # Number of indirect misses. (Count)
system.cpu_cluster.cpus.branchPred.indirectMispredicted           32                       # Number of mispredicted indirect branches. (Count)
system.cpu_cluster.cpus.commitStats0.numInsts         5397                       # Number of instructions committed (thread level) (Count)
system.cpu_cluster.cpus.commitStats0.numOps         6377                       # Number of ops (including micro ops) committed (thread level) (Count)
system.cpu_cluster.cpus.commitStats0.numInstsNotNOP            0                       # Number of instructions committed excluding NOPs or prefetches (Count)
system.cpu_cluster.cpus.commitStats0.numOpsNotNOP            0                       # Number of Ops (including micro ops) Simulated (Count)
system.cpu_cluster.cpus.commitStats0.cpi    20.319807                       # CPI: cycles per instruction (thread level) ((Cycle/Count))
system.cpu_cluster.cpus.commitStats0.ipc     0.049213                       # IPC: instructions per cycle (thread level) ((Count/Cycle))
system.cpu_cluster.cpus.commitStats0.numMemRefs            0                       # Number of memory references committed (Count)
system.cpu_cluster.cpus.commitStats0.numFpInsts            0                       # Number of float instructions (Count)
system.cpu_cluster.cpus.commitStats0.numIntInsts            0                       # Number of integer instructions (Count)
system.cpu_cluster.cpus.commitStats0.numLoadInsts            0                       # Number of load instructions (Count)
system.cpu_cluster.cpus.commitStats0.numStoreInsts            0                       # Number of store instructions (Count)
system.cpu_cluster.cpus.commitStats0.numVecInsts            0                       # Number of vector instructions (Count)
system.cpu_cluster.cpus.commitStats0.committedInstType::No_OpClass            5      0.08%      0.08% # Class of committed instruction. (Count)
system.cpu_cluster.cpus.commitStats0.committedInstType::IntAlu         4577     71.77%     71.85% # Class of committed instruction. (Count)
system.cpu_cluster.cpus.commitStats0.committedInstType::IntMult            3      0.05%     71.90% # Class of committed instruction. (Count)
system.cpu_cluster.cpus.commitStats0.committedInstType::IntDiv            2      0.03%     71.93% # Class of committed instruction. (Count)
system.cpu_cluster.cpus.commitStats0.committedInstType::FloatAdd            0      0.00%     71.93% # Class of committed instruction. (Count)
system.cpu_cluster.cpus.commitStats0.committedInstType::FloatCmp            0      0.00%     71.93% # Class of committed instruction. (Count)
system.cpu_cluster.cpus.commitStats0.committedInstType::FloatCvt            0      0.00%     71.93% # Class of committed instruction. (Count)
system.cpu_cluster.cpus.commitStats0.committedInstType::FloatMult            0      0.00%     71.93% # Class of committed instruction. (Count)
system.cpu_cluster.cpus.commitStats0.committedInstType::FloatMultAcc            0      0.00%     71.93% # Class of committed instruction. (Count)
system.cpu_cluster.cpus.commitStats0.committedInstType::FloatDiv            0      0.00%     71.93% # Class of committed instruction. (Count)
system.cpu_cluster.cpus.commitStats0.committedInstType::FloatMisc            0      0.00%     71.93% # Class of committed instruction. (Count)
system.cpu_cluster.cpus.commitStats0.committedInstType::FloatSqrt            0      0.00%     71.93% # Class of committed instruction. (Count)
system.cpu_cluster.cpus.commitStats0.committedInstType::SimdAdd            7      0.11%     72.04% # Class of committed instruction. (Count)
system.cpu_cluster.cpus.commitStats0.committedInstType::SimdAddAcc            0      0.00%     72.04% # Class of committed instruction. (Count)
system.cpu_cluster.cpus.commitStats0.committedInstType::SimdAlu            4      0.06%     72.10% # Class of committed instruction. (Count)
system.cpu_cluster.cpus.commitStats0.committedInstType::SimdCmp            4      0.06%     72.17% # Class of committed instruction. (Count)
system.cpu_cluster.cpus.commitStats0.committedInstType::SimdCvt            0      0.00%     72.17% # Class of committed instruction. (Count)
system.cpu_cluster.cpus.commitStats0.committedInstType::SimdMisc            6      0.09%     72.26% # Class of committed instruction. (Count)
system.cpu_cluster.cpus.commitStats0.committedInstType::SimdMult            0      0.00%     72.26% # Class of committed instruction. (Count)
system.cpu_cluster.cpus.commitStats0.committedInstType::SimdMultAcc            0      0.00%     72.26% # Class of committed instruction. (Count)
system.cpu_cluster.cpus.commitStats0.committedInstType::SimdMatMultAcc            0      0.00%     72.26% # Class of committed instruction. (Count)
system.cpu_cluster.cpus.commitStats0.committedInstType::SimdShift            0      0.00%     72.26% # Class of committed instruction. (Count)
system.cpu_cluster.cpus.commitStats0.committedInstType::SimdShiftAcc            0      0.00%     72.26% # Class of committed instruction. (Count)
system.cpu_cluster.cpus.commitStats0.committedInstType::SimdDiv            0      0.00%     72.26% # Class of committed instruction. (Count)
system.cpu_cluster.cpus.commitStats0.committedInstType::SimdSqrt            0      0.00%     72.26% # Class of committed instruction. (Count)
system.cpu_cluster.cpus.commitStats0.committedInstType::SimdFloatAdd            0      0.00%     72.26% # Class of committed instruction. (Count)
system.cpu_cluster.cpus.commitStats0.committedInstType::SimdFloatAlu            0      0.00%     72.26% # Class of committed instruction. (Count)
system.cpu_cluster.cpus.commitStats0.committedInstType::SimdFloatCmp            0      0.00%     72.26% # Class of committed instruction. (Count)
system.cpu_cluster.cpus.commitStats0.committedInstType::SimdFloatCvt            0      0.00%     72.26% # Class of committed instruction. (Count)
system.cpu_cluster.cpus.commitStats0.committedInstType::SimdFloatDiv            0      0.00%     72.26% # Class of committed instruction. (Count)
system.cpu_cluster.cpus.commitStats0.committedInstType::SimdFloatMisc            0      0.00%     72.26% # Class of committed instruction. (Count)
system.cpu_cluster.cpus.commitStats0.committedInstType::SimdFloatMult            0      0.00%     72.26% # Class of committed instruction. (Count)
system.cpu_cluster.cpus.commitStats0.committedInstType::SimdFloatMultAcc            0      0.00%     72.26% # Class of committed instruction. (Count)
system.cpu_cluster.cpus.commitStats0.committedInstType::SimdFloatMatMultAcc            0      0.00%     72.26% # Class of committed instruction. (Count)
system.cpu_cluster.cpus.commitStats0.committedInstType::SimdFloatSqrt            0      0.00%     72.26% # Class of committed instruction. (Count)
system.cpu_cluster.cpus.commitStats0.committedInstType::SimdReduceAdd            0      0.00%     72.26% # Class of committed instruction. (Count)
system.cpu_cluster.cpus.commitStats0.committedInstType::SimdReduceAlu            0      0.00%     72.26% # Class of committed instruction. (Count)
system.cpu_cluster.cpus.commitStats0.committedInstType::SimdReduceCmp            0      0.00%     72.26% # Class of committed instruction. (Count)
system.cpu_cluster.cpus.commitStats0.committedInstType::SimdFloatReduceAdd            0      0.00%     72.26% # Class of committed instruction. (Count)
system.cpu_cluster.cpus.commitStats0.committedInstType::SimdFloatReduceCmp            0      0.00%     72.26% # Class of committed instruction. (Count)
system.cpu_cluster.cpus.commitStats0.committedInstType::SimdAes            0      0.00%     72.26% # Class of committed instruction. (Count)
system.cpu_cluster.cpus.commitStats0.committedInstType::SimdAesMix            0      0.00%     72.26% # Class of committed instruction. (Count)
system.cpu_cluster.cpus.commitStats0.committedInstType::SimdSha1Hash            0      0.00%     72.26% # Class of committed instruction. (Count)
system.cpu_cluster.cpus.commitStats0.committedInstType::SimdSha1Hash2            0      0.00%     72.26% # Class of committed instruction. (Count)
system.cpu_cluster.cpus.commitStats0.committedInstType::SimdSha256Hash            0      0.00%     72.26% # Class of committed instruction. (Count)
system.cpu_cluster.cpus.commitStats0.committedInstType::SimdSha256Hash2            0      0.00%     72.26% # Class of committed instruction. (Count)
system.cpu_cluster.cpus.commitStats0.committedInstType::SimdShaSigma2            0      0.00%     72.26% # Class of committed instruction. (Count)
system.cpu_cluster.cpus.commitStats0.committedInstType::SimdShaSigma3            0      0.00%     72.26% # Class of committed instruction. (Count)
system.cpu_cluster.cpus.commitStats0.committedInstType::SimdPredAlu            0      0.00%     72.26% # Class of committed instruction. (Count)
system.cpu_cluster.cpus.commitStats0.committedInstType::Matrix            0      0.00%     72.26% # Class of committed instruction. (Count)
system.cpu_cluster.cpus.commitStats0.committedInstType::MatrixMov            0      0.00%     72.26% # Class of committed instruction. (Count)
system.cpu_cluster.cpus.commitStats0.committedInstType::MatrixOP            0      0.00%     72.26% # Class of committed instruction. (Count)
system.cpu_cluster.cpus.commitStats0.committedInstType::MemRead          732     11.48%     83.74% # Class of committed instruction. (Count)
system.cpu_cluster.cpus.commitStats0.committedInstType::MemWrite         1037     16.26%    100.00% # Class of committed instruction. (Count)
system.cpu_cluster.cpus.commitStats0.committedInstType::FloatMemRead            0      0.00%    100.00% # Class of committed instruction. (Count)
system.cpu_cluster.cpus.commitStats0.committedInstType::FloatMemWrite            0      0.00%    100.00% # Class of committed instruction. (Count)
system.cpu_cluster.cpus.commitStats0.committedInstType::IprAccess            0      0.00%    100.00% # Class of committed instruction. (Count)
system.cpu_cluster.cpus.commitStats0.committedInstType::InstPrefetch            0      0.00%    100.00% # Class of committed instruction. (Count)
system.cpu_cluster.cpus.commitStats0.committedInstType::VectorUnitStrideLoad            0      0.00%    100.00% # Class of committed instruction. (Count)
system.cpu_cluster.cpus.commitStats0.committedInstType::VectorUnitStrideStore            0      0.00%    100.00% # Class of committed instruction. (Count)
system.cpu_cluster.cpus.commitStats0.committedInstType::VectorUnitStrideMaskLoad            0      0.00%    100.00% # Class of committed instruction. (Count)
system.cpu_cluster.cpus.commitStats0.committedInstType::VectorUnitStrideMaskStore            0      0.00%    100.00% # Class of committed instruction. (Count)
system.cpu_cluster.cpus.commitStats0.committedInstType::VectorStridedLoad            0      0.00%    100.00% # Class of committed instruction. (Count)
system.cpu_cluster.cpus.commitStats0.committedInstType::VectorStridedStore            0      0.00%    100.00% # Class of committed instruction. (Count)
system.cpu_cluster.cpus.commitStats0.committedInstType::VectorIndexedLoad            0      0.00%    100.00% # Class of committed instruction. (Count)
system.cpu_cluster.cpus.commitStats0.committedInstType::VectorIndexedStore            0      0.00%    100.00% # Class of committed instruction. (Count)
system.cpu_cluster.cpus.commitStats0.committedInstType::VectorUnitStrideFaultOnlyFirstLoad            0      0.00%    100.00% # Class of committed instruction. (Count)
system.cpu_cluster.cpus.commitStats0.committedInstType::VectorWholeRegisterLoad            0      0.00%    100.00% # Class of committed instruction. (Count)
system.cpu_cluster.cpus.commitStats0.committedInstType::VectorWholeRegisterStore            0      0.00%    100.00% # Class of committed instruction. (Count)
system.cpu_cluster.cpus.commitStats0.committedInstType::VectorIntegerArith            0      0.00%    100.00% # Class of committed instruction. (Count)
system.cpu_cluster.cpus.commitStats0.committedInstType::VectorFloatArith            0      0.00%    100.00% # Class of committed instruction. (Count)
system.cpu_cluster.cpus.commitStats0.committedInstType::VectorFloatConvert            0      0.00%    100.00% # Class of committed instruction. (Count)
system.cpu_cluster.cpus.commitStats0.committedInstType::VectorIntegerReduce            0      0.00%    100.00% # Class of committed instruction. (Count)
system.cpu_cluster.cpus.commitStats0.committedInstType::VectorFloatReduce            0      0.00%    100.00% # Class of committed instruction. (Count)
system.cpu_cluster.cpus.commitStats0.committedInstType::VectorMisc            0      0.00%    100.00% # Class of committed instruction. (Count)
system.cpu_cluster.cpus.commitStats0.committedInstType::VectorIntegerExtension            0      0.00%    100.00% # Class of committed instruction. (Count)
system.cpu_cluster.cpus.commitStats0.committedInstType::VectorConfig            0      0.00%    100.00% # Class of committed instruction. (Count)
system.cpu_cluster.cpus.commitStats0.committedInstType::total         6377                       # Class of committed instruction. (Count)
system.cpu_cluster.cpus.dcache.demandHits::cpu_cluster.cpus.data         1570                       # number of demand (read+write) hits (Count)
system.cpu_cluster.cpus.dcache.demandHits::total         1570                       # number of demand (read+write) hits (Count)
system.cpu_cluster.cpus.dcache.overallHits::cpu_cluster.cpus.data         1575                       # number of overall hits (Count)
system.cpu_cluster.cpus.dcache.overallHits::total         1575                       # number of overall hits (Count)
system.cpu_cluster.cpus.dcache.demandMisses::cpu_cluster.cpus.data          291                       # number of demand (read+write) misses (Count)
system.cpu_cluster.cpus.dcache.demandMisses::total          291                       # number of demand (read+write) misses (Count)
system.cpu_cluster.cpus.dcache.overallMisses::cpu_cluster.cpus.data          294                       # number of overall misses (Count)
system.cpu_cluster.cpus.dcache.overallMisses::total          294                       # number of overall misses (Count)
system.cpu_cluster.cpus.dcache.demandMissLatency::cpu_cluster.cpus.data     14482000                       # number of demand (read+write) miss ticks (Tick)
system.cpu_cluster.cpus.dcache.demandMissLatency::total     14482000                       # number of demand (read+write) miss ticks (Tick)
system.cpu_cluster.cpus.dcache.overallMissLatency::cpu_cluster.cpus.data     14482000                       # number of overall miss ticks (Tick)
system.cpu_cluster.cpus.dcache.overallMissLatency::total     14482000                       # number of overall miss ticks (Tick)
system.cpu_cluster.cpus.dcache.demandAccesses::cpu_cluster.cpus.data         1861                       # number of demand (read+write) accesses (Count)
system.cpu_cluster.cpus.dcache.demandAccesses::total         1861                       # number of demand (read+write) accesses (Count)
system.cpu_cluster.cpus.dcache.overallAccesses::cpu_cluster.cpus.data         1869                       # number of overall (read+write) accesses (Count)
system.cpu_cluster.cpus.dcache.overallAccesses::total         1869                       # number of overall (read+write) accesses (Count)
system.cpu_cluster.cpus.dcache.demandMissRate::cpu_cluster.cpus.data     0.156368                       # miss rate for demand accesses (Ratio)
system.cpu_cluster.cpus.dcache.demandMissRate::total     0.156368                       # miss rate for demand accesses (Ratio)
system.cpu_cluster.cpus.dcache.overallMissRate::cpu_cluster.cpus.data     0.157303                       # miss rate for overall accesses (Ratio)
system.cpu_cluster.cpus.dcache.overallMissRate::total     0.157303                       # miss rate for overall accesses (Ratio)
system.cpu_cluster.cpus.dcache.demandAvgMissLatency::cpu_cluster.cpus.data 49766.323024                       # average overall miss latency in ticks ((Tick/Count))
system.cpu_cluster.cpus.dcache.demandAvgMissLatency::total 49766.323024                       # average overall miss latency in ticks ((Tick/Count))
system.cpu_cluster.cpus.dcache.overallAvgMissLatency::cpu_cluster.cpus.data 49258.503401                       # average overall miss latency ((Tick/Count))
system.cpu_cluster.cpus.dcache.overallAvgMissLatency::total 49258.503401                       # average overall miss latency ((Tick/Count))
system.cpu_cluster.cpus.dcache.blockedCycles::no_mshrs            0                       # number of cycles access was blocked (Cycle)
system.cpu_cluster.cpus.dcache.blockedCycles::no_targets            0                       # number of cycles access was blocked (Cycle)
system.cpu_cluster.cpus.dcache.blockedCauses::no_mshrs            0                       # number of times access was blocked (Count)
system.cpu_cluster.cpus.dcache.blockedCauses::no_targets            0                       # number of times access was blocked (Count)
system.cpu_cluster.cpus.dcache.avgBlocked::no_mshrs          nan                       # average number of cycles each access was blocked ((Cycle/Count))
system.cpu_cluster.cpus.dcache.avgBlocked::no_targets          nan                       # average number of cycles each access was blocked ((Cycle/Count))
system.cpu_cluster.cpus.dcache.writebacks::writebacks           71                       # number of writebacks (Count)
system.cpu_cluster.cpus.dcache.writebacks::total           71                       # number of writebacks (Count)
system.cpu_cluster.cpus.dcache.demandMshrHits::cpu_cluster.cpus.data           86                       # number of demand (read+write) MSHR hits (Count)
system.cpu_cluster.cpus.dcache.demandMshrHits::total           86                       # number of demand (read+write) MSHR hits (Count)
system.cpu_cluster.cpus.dcache.overallMshrHits::cpu_cluster.cpus.data           86                       # number of overall MSHR hits (Count)
system.cpu_cluster.cpus.dcache.overallMshrHits::total           86                       # number of overall MSHR hits (Count)
system.cpu_cluster.cpus.dcache.demandMshrMisses::cpu_cluster.cpus.data          205                       # number of demand (read+write) MSHR misses (Count)
system.cpu_cluster.cpus.dcache.demandMshrMisses::total          205                       # number of demand (read+write) MSHR misses (Count)
system.cpu_cluster.cpus.dcache.overallMshrMisses::cpu_cluster.cpus.data          208                       # number of overall MSHR misses (Count)
system.cpu_cluster.cpus.dcache.overallMshrMisses::cpu_cluster.cpus.dcache.prefetcher           14                       # number of overall MSHR misses (Count)
system.cpu_cluster.cpus.dcache.overallMshrMisses::total          222                       # number of overall MSHR misses (Count)
system.cpu_cluster.cpus.dcache.demandMshrMissLatency::cpu_cluster.cpus.data      9831500                       # number of demand (read+write) MSHR miss ticks (Tick)
system.cpu_cluster.cpus.dcache.demandMshrMissLatency::total      9831500                       # number of demand (read+write) MSHR miss ticks (Tick)
system.cpu_cluster.cpus.dcache.overallMshrMissLatency::cpu_cluster.cpus.data      9992500                       # number of overall MSHR miss ticks (Tick)
system.cpu_cluster.cpus.dcache.overallMshrMissLatency::cpu_cluster.cpus.dcache.prefetcher       700485                       # number of overall MSHR miss ticks (Tick)
system.cpu_cluster.cpus.dcache.overallMshrMissLatency::total     10692985                       # number of overall MSHR miss ticks (Tick)
system.cpu_cluster.cpus.dcache.demandMshrMissRate::cpu_cluster.cpus.data     0.110156                       # mshr miss ratio for demand accesses (Ratio)
system.cpu_cluster.cpus.dcache.demandMshrMissRate::total     0.110156                       # mshr miss ratio for demand accesses (Ratio)
system.cpu_cluster.cpus.dcache.overallMshrMissRate::cpu_cluster.cpus.data     0.111289                       # mshr miss ratio for overall accesses (Ratio)
system.cpu_cluster.cpus.dcache.overallMshrMissRate::cpu_cluster.cpus.dcache.prefetcher          inf                       # mshr miss ratio for overall accesses (Ratio)
system.cpu_cluster.cpus.dcache.overallMshrMissRate::total     0.118780                       # mshr miss ratio for overall accesses (Ratio)
system.cpu_cluster.cpus.dcache.demandAvgMshrMissLatency::cpu_cluster.cpus.data 47958.536585                       # average overall mshr miss latency ((Tick/Count))
system.cpu_cluster.cpus.dcache.demandAvgMshrMissLatency::total 47958.536585                       # average overall mshr miss latency ((Tick/Count))
system.cpu_cluster.cpus.dcache.overallAvgMshrMissLatency::cpu_cluster.cpus.data 48040.865385                       # average overall mshr miss latency ((Tick/Count))
system.cpu_cluster.cpus.dcache.overallAvgMshrMissLatency::cpu_cluster.cpus.dcache.prefetcher 50034.642857                       # average overall mshr miss latency ((Tick/Count))
system.cpu_cluster.cpus.dcache.overallAvgMshrMissLatency::total 48166.599099                       # average overall mshr miss latency ((Tick/Count))
system.cpu_cluster.cpus.dcache.replacements          125                       # number of replacements (Count)
system.cpu_cluster.cpus.dcache.HardPFReq.mshrMisses::cpu_cluster.cpus.dcache.prefetcher           14                       # number of HardPFReq MSHR misses (Count)
system.cpu_cluster.cpus.dcache.HardPFReq.mshrMisses::total           14                       # number of HardPFReq MSHR misses (Count)
system.cpu_cluster.cpus.dcache.HardPFReq.mshrMissLatency::cpu_cluster.cpus.dcache.prefetcher       700485                       # number of HardPFReq MSHR miss ticks (Tick)
system.cpu_cluster.cpus.dcache.HardPFReq.mshrMissLatency::total       700485                       # number of HardPFReq MSHR miss ticks (Tick)
system.cpu_cluster.cpus.dcache.HardPFReq.mshrMissRate::cpu_cluster.cpus.dcache.prefetcher          inf                       # mshr miss rate for HardPFReq accesses (Ratio)
system.cpu_cluster.cpus.dcache.HardPFReq.mshrMissRate::total          inf                       # mshr miss rate for HardPFReq accesses (Ratio)
system.cpu_cluster.cpus.dcache.HardPFReq.avgMshrMissLatency::cpu_cluster.cpus.dcache.prefetcher 50034.642857                       # average HardPFReq mshr miss latency ((Tick/Count))
system.cpu_cluster.cpus.dcache.HardPFReq.avgMshrMissLatency::total 50034.642857                       # average HardPFReq mshr miss latency ((Tick/Count))
system.cpu_cluster.cpus.dcache.LoadLockedReq.hits::cpu_cluster.cpus.data            3                       # number of LoadLockedReq hits (Count)
system.cpu_cluster.cpus.dcache.LoadLockedReq.hits::total            3                       # number of LoadLockedReq hits (Count)
system.cpu_cluster.cpus.dcache.LoadLockedReq.misses::cpu_cluster.cpus.data            1                       # number of LoadLockedReq misses (Count)
system.cpu_cluster.cpus.dcache.LoadLockedReq.misses::total            1                       # number of LoadLockedReq misses (Count)
system.cpu_cluster.cpus.dcache.LoadLockedReq.missLatency::cpu_cluster.cpus.data         4250                       # number of LoadLockedReq miss ticks (Tick)
system.cpu_cluster.cpus.dcache.LoadLockedReq.missLatency::total         4250                       # number of LoadLockedReq miss ticks (Tick)
system.cpu_cluster.cpus.dcache.LoadLockedReq.accesses::cpu_cluster.cpus.data            4                       # number of LoadLockedReq accesses(hits+misses) (Count)
system.cpu_cluster.cpus.dcache.LoadLockedReq.accesses::total            4                       # number of LoadLockedReq accesses(hits+misses) (Count)
system.cpu_cluster.cpus.dcache.LoadLockedReq.missRate::cpu_cluster.cpus.data     0.250000                       # miss rate for LoadLockedReq accesses (Ratio)
system.cpu_cluster.cpus.dcache.LoadLockedReq.missRate::total     0.250000                       # miss rate for LoadLockedReq accesses (Ratio)
system.cpu_cluster.cpus.dcache.LoadLockedReq.avgMissLatency::cpu_cluster.cpus.data         4250                       # average LoadLockedReq miss latency ((Tick/Count))
system.cpu_cluster.cpus.dcache.LoadLockedReq.avgMissLatency::total         4250                       # average LoadLockedReq miss latency ((Tick/Count))
system.cpu_cluster.cpus.dcache.LoadLockedReq.mshrMisses::cpu_cluster.cpus.data            1                       # number of LoadLockedReq MSHR misses (Count)
system.cpu_cluster.cpus.dcache.LoadLockedReq.mshrMisses::total            1                       # number of LoadLockedReq MSHR misses (Count)
system.cpu_cluster.cpus.dcache.LoadLockedReq.mshrMissLatency::cpu_cluster.cpus.data         4000                       # number of LoadLockedReq MSHR miss ticks (Tick)
system.cpu_cluster.cpus.dcache.LoadLockedReq.mshrMissLatency::total         4000                       # number of LoadLockedReq MSHR miss ticks (Tick)
system.cpu_cluster.cpus.dcache.LoadLockedReq.mshrMissRate::cpu_cluster.cpus.data     0.250000                       # mshr miss rate for LoadLockedReq accesses (Ratio)
system.cpu_cluster.cpus.dcache.LoadLockedReq.mshrMissRate::total     0.250000                       # mshr miss rate for LoadLockedReq accesses (Ratio)
system.cpu_cluster.cpus.dcache.LoadLockedReq.avgMshrMissLatency::cpu_cluster.cpus.data         4000                       # average LoadLockedReq mshr miss latency ((Tick/Count))
system.cpu_cluster.cpus.dcache.LoadLockedReq.avgMshrMissLatency::total         4000                       # average LoadLockedReq mshr miss latency ((Tick/Count))
system.cpu_cluster.cpus.dcache.ReadReq.hits::cpu_cluster.cpus.data          718                       # number of ReadReq hits (Count)
system.cpu_cluster.cpus.dcache.ReadReq.hits::total          718                       # number of ReadReq hits (Count)
system.cpu_cluster.cpus.dcache.ReadReq.misses::cpu_cluster.cpus.data          113                       # number of ReadReq misses (Count)
system.cpu_cluster.cpus.dcache.ReadReq.misses::total          113                       # number of ReadReq misses (Count)
system.cpu_cluster.cpus.dcache.ReadReq.missLatency::cpu_cluster.cpus.data      4771250                       # number of ReadReq miss ticks (Tick)
system.cpu_cluster.cpus.dcache.ReadReq.missLatency::total      4771250                       # number of ReadReq miss ticks (Tick)
system.cpu_cluster.cpus.dcache.ReadReq.accesses::cpu_cluster.cpus.data          831                       # number of ReadReq accesses(hits+misses) (Count)
system.cpu_cluster.cpus.dcache.ReadReq.accesses::total          831                       # number of ReadReq accesses(hits+misses) (Count)
system.cpu_cluster.cpus.dcache.ReadReq.missRate::cpu_cluster.cpus.data     0.135981                       # miss rate for ReadReq accesses (Ratio)
system.cpu_cluster.cpus.dcache.ReadReq.missRate::total     0.135981                       # miss rate for ReadReq accesses (Ratio)
system.cpu_cluster.cpus.dcache.ReadReq.avgMissLatency::cpu_cluster.cpus.data 42223.451327                       # average ReadReq miss latency ((Tick/Count))
system.cpu_cluster.cpus.dcache.ReadReq.avgMissLatency::total 42223.451327                       # average ReadReq miss latency ((Tick/Count))
system.cpu_cluster.cpus.dcache.ReadReq.mshrHits::cpu_cluster.cpus.data            7                       # number of ReadReq MSHR hits (Count)
system.cpu_cluster.cpus.dcache.ReadReq.mshrHits::total            7                       # number of ReadReq MSHR hits (Count)
system.cpu_cluster.cpus.dcache.ReadReq.mshrMisses::cpu_cluster.cpus.data          106                       # number of ReadReq MSHR misses (Count)
system.cpu_cluster.cpus.dcache.ReadReq.mshrMisses::total          106                       # number of ReadReq MSHR misses (Count)
system.cpu_cluster.cpus.dcache.ReadReq.mshrMissLatency::cpu_cluster.cpus.data      4495000                       # number of ReadReq MSHR miss ticks (Tick)
system.cpu_cluster.cpus.dcache.ReadReq.mshrMissLatency::total      4495000                       # number of ReadReq MSHR miss ticks (Tick)
system.cpu_cluster.cpus.dcache.ReadReq.mshrMissRate::cpu_cluster.cpus.data     0.127557                       # mshr miss rate for ReadReq accesses (Ratio)
system.cpu_cluster.cpus.dcache.ReadReq.mshrMissRate::total     0.127557                       # mshr miss rate for ReadReq accesses (Ratio)
system.cpu_cluster.cpus.dcache.ReadReq.avgMshrMissLatency::cpu_cluster.cpus.data 42405.660377                       # average ReadReq mshr miss latency ((Tick/Count))
system.cpu_cluster.cpus.dcache.ReadReq.avgMshrMissLatency::total 42405.660377                       # average ReadReq mshr miss latency ((Tick/Count))
system.cpu_cluster.cpus.dcache.SoftPFReq.hits::cpu_cluster.cpus.data            5                       # number of SoftPFReq hits (Count)
system.cpu_cluster.cpus.dcache.SoftPFReq.hits::total            5                       # number of SoftPFReq hits (Count)
system.cpu_cluster.cpus.dcache.SoftPFReq.misses::cpu_cluster.cpus.data            3                       # number of SoftPFReq misses (Count)
system.cpu_cluster.cpus.dcache.SoftPFReq.misses::total            3                       # number of SoftPFReq misses (Count)
system.cpu_cluster.cpus.dcache.SoftPFReq.accesses::cpu_cluster.cpus.data            8                       # number of SoftPFReq accesses(hits+misses) (Count)
system.cpu_cluster.cpus.dcache.SoftPFReq.accesses::total            8                       # number of SoftPFReq accesses(hits+misses) (Count)
system.cpu_cluster.cpus.dcache.SoftPFReq.missRate::cpu_cluster.cpus.data     0.375000                       # miss rate for SoftPFReq accesses (Ratio)
system.cpu_cluster.cpus.dcache.SoftPFReq.missRate::total     0.375000                       # miss rate for SoftPFReq accesses (Ratio)
system.cpu_cluster.cpus.dcache.SoftPFReq.mshrMisses::cpu_cluster.cpus.data            3                       # number of SoftPFReq MSHR misses (Count)
system.cpu_cluster.cpus.dcache.SoftPFReq.mshrMisses::total            3                       # number of SoftPFReq MSHR misses (Count)
system.cpu_cluster.cpus.dcache.SoftPFReq.mshrMissLatency::cpu_cluster.cpus.data       161000                       # number of SoftPFReq MSHR miss ticks (Tick)
system.cpu_cluster.cpus.dcache.SoftPFReq.mshrMissLatency::total       161000                       # number of SoftPFReq MSHR miss ticks (Tick)
system.cpu_cluster.cpus.dcache.SoftPFReq.mshrMissRate::cpu_cluster.cpus.data     0.375000                       # mshr miss rate for SoftPFReq accesses (Ratio)
system.cpu_cluster.cpus.dcache.SoftPFReq.mshrMissRate::total     0.375000                       # mshr miss rate for SoftPFReq accesses (Ratio)
system.cpu_cluster.cpus.dcache.SoftPFReq.avgMshrMissLatency::cpu_cluster.cpus.data 53666.666667                       # average SoftPFReq mshr miss latency ((Tick/Count))
system.cpu_cluster.cpus.dcache.SoftPFReq.avgMshrMissLatency::total 53666.666667                       # average SoftPFReq mshr miss latency ((Tick/Count))
system.cpu_cluster.cpus.dcache.StoreCondReq.hits::cpu_cluster.cpus.data            4                       # number of StoreCondReq hits (Count)
system.cpu_cluster.cpus.dcache.StoreCondReq.hits::total            4                       # number of StoreCondReq hits (Count)
system.cpu_cluster.cpus.dcache.StoreCondReq.accesses::cpu_cluster.cpus.data            4                       # number of StoreCondReq accesses(hits+misses) (Count)
system.cpu_cluster.cpus.dcache.StoreCondReq.accesses::total            4                       # number of StoreCondReq accesses(hits+misses) (Count)
system.cpu_cluster.cpus.dcache.WriteLineReq.misses::cpu_cluster.cpus.data            7                       # number of WriteLineReq misses (Count)
system.cpu_cluster.cpus.dcache.WriteLineReq.misses::total            7                       # number of WriteLineReq misses (Count)
system.cpu_cluster.cpus.dcache.WriteLineReq.missLatency::cpu_cluster.cpus.data       290500                       # number of WriteLineReq miss ticks (Tick)
system.cpu_cluster.cpus.dcache.WriteLineReq.missLatency::total       290500                       # number of WriteLineReq miss ticks (Tick)
system.cpu_cluster.cpus.dcache.WriteLineReq.accesses::cpu_cluster.cpus.data            7                       # number of WriteLineReq accesses(hits+misses) (Count)
system.cpu_cluster.cpus.dcache.WriteLineReq.accesses::total            7                       # number of WriteLineReq accesses(hits+misses) (Count)
system.cpu_cluster.cpus.dcache.WriteLineReq.missRate::cpu_cluster.cpus.data            1                       # miss rate for WriteLineReq accesses (Ratio)
system.cpu_cluster.cpus.dcache.WriteLineReq.missRate::total            1                       # miss rate for WriteLineReq accesses (Ratio)
system.cpu_cluster.cpus.dcache.WriteLineReq.avgMissLatency::cpu_cluster.cpus.data        41500                       # average WriteLineReq miss latency ((Tick/Count))
system.cpu_cluster.cpus.dcache.WriteLineReq.avgMissLatency::total        41500                       # average WriteLineReq miss latency ((Tick/Count))
system.cpu_cluster.cpus.dcache.WriteLineReq.mshrHits::cpu_cluster.cpus.data            4                       # number of WriteLineReq MSHR hits (Count)
system.cpu_cluster.cpus.dcache.WriteLineReq.mshrHits::total            4                       # number of WriteLineReq MSHR hits (Count)
system.cpu_cluster.cpus.dcache.WriteLineReq.mshrMisses::cpu_cluster.cpus.data            3                       # number of WriteLineReq MSHR misses (Count)
system.cpu_cluster.cpus.dcache.WriteLineReq.mshrMisses::total            3                       # number of WriteLineReq MSHR misses (Count)
system.cpu_cluster.cpus.dcache.WriteLineReq.mshrMissLatency::cpu_cluster.cpus.data        43000                       # number of WriteLineReq MSHR miss ticks (Tick)
system.cpu_cluster.cpus.dcache.WriteLineReq.mshrMissLatency::total        43000                       # number of WriteLineReq MSHR miss ticks (Tick)
system.cpu_cluster.cpus.dcache.WriteLineReq.mshrMissRate::cpu_cluster.cpus.data     0.428571                       # mshr miss rate for WriteLineReq accesses (Ratio)
system.cpu_cluster.cpus.dcache.WriteLineReq.mshrMissRate::total     0.428571                       # mshr miss rate for WriteLineReq accesses (Ratio)
system.cpu_cluster.cpus.dcache.WriteLineReq.avgMshrMissLatency::cpu_cluster.cpus.data 14333.333333                       # average WriteLineReq mshr miss latency ((Tick/Count))
system.cpu_cluster.cpus.dcache.WriteLineReq.avgMshrMissLatency::total 14333.333333                       # average WriteLineReq mshr miss latency ((Tick/Count))
system.cpu_cluster.cpus.dcache.WriteReq.hits::cpu_cluster.cpus.data          852                       # number of WriteReq hits (Count)
system.cpu_cluster.cpus.dcache.WriteReq.hits::total          852                       # number of WriteReq hits (Count)
system.cpu_cluster.cpus.dcache.WriteReq.misses::cpu_cluster.cpus.data          171                       # number of WriteReq misses (Count)
system.cpu_cluster.cpus.dcache.WriteReq.misses::total          171                       # number of WriteReq misses (Count)
system.cpu_cluster.cpus.dcache.WriteReq.missLatency::cpu_cluster.cpus.data      9420250                       # number of WriteReq miss ticks (Tick)
system.cpu_cluster.cpus.dcache.WriteReq.missLatency::total      9420250                       # number of WriteReq miss ticks (Tick)
system.cpu_cluster.cpus.dcache.WriteReq.accesses::cpu_cluster.cpus.data         1023                       # number of WriteReq accesses(hits+misses) (Count)
system.cpu_cluster.cpus.dcache.WriteReq.accesses::total         1023                       # number of WriteReq accesses(hits+misses) (Count)
system.cpu_cluster.cpus.dcache.WriteReq.missRate::cpu_cluster.cpus.data     0.167155                       # miss rate for WriteReq accesses (Ratio)
system.cpu_cluster.cpus.dcache.WriteReq.missRate::total     0.167155                       # miss rate for WriteReq accesses (Ratio)
system.cpu_cluster.cpus.dcache.WriteReq.avgMissLatency::cpu_cluster.cpus.data 55089.181287                       # average WriteReq miss latency ((Tick/Count))
system.cpu_cluster.cpus.dcache.WriteReq.avgMissLatency::total 55089.181287                       # average WriteReq miss latency ((Tick/Count))
system.cpu_cluster.cpus.dcache.WriteReq.mshrHits::cpu_cluster.cpus.data           75                       # number of WriteReq MSHR hits (Count)
system.cpu_cluster.cpus.dcache.WriteReq.mshrHits::total           75                       # number of WriteReq MSHR hits (Count)
system.cpu_cluster.cpus.dcache.WriteReq.mshrMisses::cpu_cluster.cpus.data           96                       # number of WriteReq MSHR misses (Count)
system.cpu_cluster.cpus.dcache.WriteReq.mshrMisses::total           96                       # number of WriteReq MSHR misses (Count)
system.cpu_cluster.cpus.dcache.WriteReq.mshrMissLatency::cpu_cluster.cpus.data      5293500                       # number of WriteReq MSHR miss ticks (Tick)
system.cpu_cluster.cpus.dcache.WriteReq.mshrMissLatency::total      5293500                       # number of WriteReq MSHR miss ticks (Tick)
system.cpu_cluster.cpus.dcache.WriteReq.mshrMissRate::cpu_cluster.cpus.data     0.093842                       # mshr miss rate for WriteReq accesses (Ratio)
system.cpu_cluster.cpus.dcache.WriteReq.mshrMissRate::total     0.093842                       # mshr miss rate for WriteReq accesses (Ratio)
system.cpu_cluster.cpus.dcache.WriteReq.avgMshrMissLatency::cpu_cluster.cpus.data 55140.625000                       # average WriteReq mshr miss latency ((Tick/Count))
system.cpu_cluster.cpus.dcache.WriteReq.avgMshrMissLatency::total 55140.625000                       # average WriteReq mshr miss latency ((Tick/Count))
system.cpu_cluster.cpus.dcache.power_state.pwrStateResidencyTicks::UNDEFINED     27416500                       # Cumulative time (in ticks) in various power states (Tick)
system.cpu_cluster.cpus.dcache.prefetcher.demandMshrMisses          205                       # demands not covered by prefetchs (Count)
system.cpu_cluster.cpus.dcache.prefetcher.pfIssued           15                       # number of hwpf issued (Count)
system.cpu_cluster.cpus.dcache.prefetcher.pfUseful            5                       # number of useful prefetch (Count)
system.cpu_cluster.cpus.dcache.prefetcher.pfUsefulButMiss            0                       # number of hit on prefetch but cache block is not in an usable state (Count)
system.cpu_cluster.cpus.dcache.prefetcher.accuracy     0.333333                       # accuracy of the prefetcher (Count)
system.cpu_cluster.cpus.dcache.prefetcher.coverage     0.023810                       # coverage brought by this prefetcher (Count)
system.cpu_cluster.cpus.dcache.prefetcher.pfHitInCache            1                       # number of prefetches hitting in cache (Count)
system.cpu_cluster.cpus.dcache.prefetcher.pfHitInMSHR            0                       # number of prefetches hitting in a MSHR (Count)
system.cpu_cluster.cpus.dcache.prefetcher.pfHitInWB            0                       # number of prefetches hit in the Write Buffer (Count)
system.cpu_cluster.cpus.dcache.prefetcher.pfLate            1                       # number of late prefetches (hitting in cache, MSHR or WB) (Count)
system.cpu_cluster.cpus.dcache.prefetcher.pfIdentified           27                       # number of prefetch candidates identified (Count)
system.cpu_cluster.cpus.dcache.prefetcher.pfBufferHit            8                       # number of redundant prefetches already in prefetch queue (Count)
system.cpu_cluster.cpus.dcache.prefetcher.pfInCache            0                       # number of redundant prefetches already in cache/mshr dropped (Count)
system.cpu_cluster.cpus.dcache.prefetcher.pfRemovedDemand            0                       # number of prefetches dropped due to a demand for the same address (Count)
system.cpu_cluster.cpus.dcache.prefetcher.pfRemovedFull            0                       # number of prefetches dropped due to prefetch queue size (Count)
system.cpu_cluster.cpus.dcache.prefetcher.pfSpanPage            1                       # number of prefetches that crossed the page (Count)
system.cpu_cluster.cpus.dcache.prefetcher.pfUsefulSpanPage            0                       # number of prefetches that is useful and crossed the page (Count)
system.cpu_cluster.cpus.dcache.prefetcher.power_state.pwrStateResidencyTicks::UNDEFINED     27416500                       # Cumulative time (in ticks) in various power states (Tick)
system.cpu_cluster.cpus.dcache.tags.tagsInUse    67.926095                       # Average ticks per tags in use ((Tick/Count))
system.cpu_cluster.cpus.dcache.tags.totalRefs          848                       # Total number of references to valid blocks. (Count)
system.cpu_cluster.cpus.dcache.tags.sampledRefs          125                       # Sample count of references to valid blocks. (Count)
system.cpu_cluster.cpus.dcache.tags.avgRefs     6.784000                       # Average number of references to valid blocks. ((Count/Count))
system.cpu_cluster.cpus.dcache.tags.warmupTick       152500                       # The tick when the warmup percentage was hit. (Tick)
system.cpu_cluster.cpus.dcache.tags.occupancies::cpu_cluster.cpus.data    63.053007                       # Average occupied blocks per tick, per requestor ((Count/Tick))
system.cpu_cluster.cpus.dcache.tags.occupancies::cpu_cluster.cpus.dcache.prefetcher     4.873087                       # Average occupied blocks per tick, per requestor ((Count/Tick))
system.cpu_cluster.cpus.dcache.tags.avgOccs::cpu_cluster.cpus.data     0.492602                       # Average percentage of cache occupancy ((Ratio/Tick))
system.cpu_cluster.cpus.dcache.tags.avgOccs::cpu_cluster.cpus.dcache.prefetcher     0.038071                       # Average percentage of cache occupancy ((Ratio/Tick))
system.cpu_cluster.cpus.dcache.tags.avgOccs::total     0.530673                       # Average percentage of cache occupancy ((Ratio/Tick))
system.cpu_cluster.cpus.dcache.tags.occupanciesTaskId::1022            6                       # Occupied blocks per task id (Count)
system.cpu_cluster.cpus.dcache.tags.occupanciesTaskId::1024           92                       # Occupied blocks per task id (Count)
system.cpu_cluster.cpus.dcache.tags.ageTaskId_1022::0            4                       # Occupied blocks per task id, per block age (Count)
system.cpu_cluster.cpus.dcache.tags.ageTaskId_1022::1            2                       # Occupied blocks per task id, per block age (Count)
system.cpu_cluster.cpus.dcache.tags.ageTaskId_1024::0           51                       # Occupied blocks per task id, per block age (Count)
system.cpu_cluster.cpus.dcache.tags.ageTaskId_1024::1           41                       # Occupied blocks per task id, per block age (Count)
system.cpu_cluster.cpus.dcache.tags.ratioOccsTaskId::1022     0.046875                       # Ratio of occupied blocks and all blocks, per task id (Ratio)
system.cpu_cluster.cpus.dcache.tags.ratioOccsTaskId::1024     0.718750                       # Ratio of occupied blocks and all blocks, per task id (Ratio)
system.cpu_cluster.cpus.dcache.tags.tagAccesses         2100                       # Number of tag accesses (Count)
system.cpu_cluster.cpus.dcache.tags.dataAccesses         2100                       # Number of data accesses (Count)
system.cpu_cluster.cpus.dcache.tags.power_state.pwrStateResidencyTicks::UNDEFINED     27416500                       # Cumulative time (in ticks) in various power states (Tick)
system.cpu_cluster.cpus.executeStats0.numInsts            0                       # Number of executed instructions (Count)
system.cpu_cluster.cpus.executeStats0.numNop            0                       # Number of nop insts executed (Count)
system.cpu_cluster.cpus.executeStats0.numBranches            0                       # Number of branches executed (Count)
system.cpu_cluster.cpus.executeStats0.numLoadInsts            0                       # Number of load instructions executed (Count)
system.cpu_cluster.cpus.executeStats0.numStoreInsts            0                       # Number of stores executed (Count)
system.cpu_cluster.cpus.executeStats0.instRate            0                       # Inst execution rate ((Count/Cycle))
system.cpu_cluster.cpus.executeStats0.numFpRegWrites            0                       # Number of times the floating registers were written (Count)
system.cpu_cluster.cpus.executeStats0.numMemRefs            0                       # Number of memory refs (Count)
system.cpu_cluster.cpus.executeStats0.numVecAluAccesses            0                       # Number of vector alu accesses (Count)
system.cpu_cluster.cpus.executeStats0.numDiscardedOps         1200                       # Number of ops (including micro ops) which were discarded before commit (Count)
system.cpu_cluster.cpus.fetch2.intInstructions         6257                       # Number of integer instructions successfully decoded (Count)
system.cpu_cluster.cpus.fetch2.fpInstructions            0                       # Number of floating point instructions successfully decoded (Count)
system.cpu_cluster.cpus.fetch2.vecInstructions           40                       # Number of SIMD instructions successfully decoded (Count)
system.cpu_cluster.cpus.fetch2.loadInstructions         1222                       # Number of memory load instructions successfully decoded (Count)
system.cpu_cluster.cpus.fetch2.storeInstructions          635                       # Number of memory store instructions successfully decoded (Count)
system.cpu_cluster.cpus.fetch2.amoInstructions            3                       # Number of memory atomic instructions successfully decoded (Count)
system.cpu_cluster.cpus.fetchStats0.numInsts            0                       # Number of instructions fetched (thread level) (Count)
system.cpu_cluster.cpus.fetchStats0.numOps            0                       # Number of ops (including micro ops) fetched (thread level) (Count)
system.cpu_cluster.cpus.fetchStats0.fetchRate            0                       # Number of inst fetches per cycle ((Count/Cycle))
system.cpu_cluster.cpus.fetchStats0.branchRate            0                       # Number of branch fetches per cycle (Ratio)
system.cpu_cluster.cpus.fetchStats0.numFetchSuspends            0                       # Number of times Execute suspended instruction fetching (Count)
system.cpu_cluster.cpus.icache.demandHits::cpu_cluster.cpus.inst         2632                       # number of demand (read+write) hits (Count)
system.cpu_cluster.cpus.icache.demandHits::total         2632                       # number of demand (read+write) hits (Count)
system.cpu_cluster.cpus.icache.overallHits::cpu_cluster.cpus.inst         2632                       # number of overall hits (Count)
system.cpu_cluster.cpus.icache.overallHits::total         2632                       # number of overall hits (Count)
system.cpu_cluster.cpus.icache.demandMisses::cpu_cluster.cpus.inst          354                       # number of demand (read+write) misses (Count)
system.cpu_cluster.cpus.icache.demandMisses::total          354                       # number of demand (read+write) misses (Count)
system.cpu_cluster.cpus.icache.overallMisses::cpu_cluster.cpus.inst          354                       # number of overall misses (Count)
system.cpu_cluster.cpus.icache.overallMisses::total          354                       # number of overall misses (Count)
system.cpu_cluster.cpus.icache.demandMissLatency::cpu_cluster.cpus.inst     20865500                       # number of demand (read+write) miss ticks (Tick)
system.cpu_cluster.cpus.icache.demandMissLatency::total     20865500                       # number of demand (read+write) miss ticks (Tick)
system.cpu_cluster.cpus.icache.overallMissLatency::cpu_cluster.cpus.inst     20865500                       # number of overall miss ticks (Tick)
system.cpu_cluster.cpus.icache.overallMissLatency::total     20865500                       # number of overall miss ticks (Tick)
system.cpu_cluster.cpus.icache.demandAccesses::cpu_cluster.cpus.inst         2986                       # number of demand (read+write) accesses (Count)
system.cpu_cluster.cpus.icache.demandAccesses::total         2986                       # number of demand (read+write) accesses (Count)
system.cpu_cluster.cpus.icache.overallAccesses::cpu_cluster.cpus.inst         2986                       # number of overall (read+write) accesses (Count)
system.cpu_cluster.cpus.icache.overallAccesses::total         2986                       # number of overall (read+write) accesses (Count)
system.cpu_cluster.cpus.icache.demandMissRate::cpu_cluster.cpus.inst     0.118553                       # miss rate for demand accesses (Ratio)
system.cpu_cluster.cpus.icache.demandMissRate::total     0.118553                       # miss rate for demand accesses (Ratio)
system.cpu_cluster.cpus.icache.overallMissRate::cpu_cluster.cpus.inst     0.118553                       # miss rate for overall accesses (Ratio)
system.cpu_cluster.cpus.icache.overallMissRate::total     0.118553                       # miss rate for overall accesses (Ratio)
system.cpu_cluster.cpus.icache.demandAvgMissLatency::cpu_cluster.cpus.inst 58942.090395                       # average overall miss latency in ticks ((Tick/Count))
system.cpu_cluster.cpus.icache.demandAvgMissLatency::total 58942.090395                       # average overall miss latency in ticks ((Tick/Count))
system.cpu_cluster.cpus.icache.overallAvgMissLatency::cpu_cluster.cpus.inst 58942.090395                       # average overall miss latency ((Tick/Count))
system.cpu_cluster.cpus.icache.overallAvgMissLatency::total 58942.090395                       # average overall miss latency ((Tick/Count))
system.cpu_cluster.cpus.icache.blockedCycles::no_mshrs            0                       # number of cycles access was blocked (Cycle)
system.cpu_cluster.cpus.icache.blockedCycles::no_targets            0                       # number of cycles access was blocked (Cycle)
system.cpu_cluster.cpus.icache.blockedCauses::no_mshrs            0                       # number of times access was blocked (Count)
system.cpu_cluster.cpus.icache.blockedCauses::no_targets            0                       # number of times access was blocked (Count)
system.cpu_cluster.cpus.icache.avgBlocked::no_mshrs          nan                       # average number of cycles each access was blocked ((Cycle/Count))
system.cpu_cluster.cpus.icache.avgBlocked::no_targets          nan                       # average number of cycles each access was blocked ((Cycle/Count))
system.cpu_cluster.cpus.icache.demandMshrMisses::cpu_cluster.cpus.inst          354                       # number of demand (read+write) MSHR misses (Count)
system.cpu_cluster.cpus.icache.demandMshrMisses::total          354                       # number of demand (read+write) MSHR misses (Count)
system.cpu_cluster.cpus.icache.overallMshrMisses::cpu_cluster.cpus.inst          354                       # number of overall MSHR misses (Count)
system.cpu_cluster.cpus.icache.overallMshrMisses::total          354                       # number of overall MSHR misses (Count)
system.cpu_cluster.cpus.icache.demandMshrMissLatency::cpu_cluster.cpus.inst     20777250                       # number of demand (read+write) MSHR miss ticks (Tick)
system.cpu_cluster.cpus.icache.demandMshrMissLatency::total     20777250                       # number of demand (read+write) MSHR miss ticks (Tick)
system.cpu_cluster.cpus.icache.overallMshrMissLatency::cpu_cluster.cpus.inst     20777250                       # number of overall MSHR miss ticks (Tick)
system.cpu_cluster.cpus.icache.overallMshrMissLatency::total     20777250                       # number of overall MSHR miss ticks (Tick)
system.cpu_cluster.cpus.icache.demandMshrMissRate::cpu_cluster.cpus.inst     0.118553                       # mshr miss ratio for demand accesses (Ratio)
system.cpu_cluster.cpus.icache.demandMshrMissRate::total     0.118553                       # mshr miss ratio for demand accesses (Ratio)
system.cpu_cluster.cpus.icache.overallMshrMissRate::cpu_cluster.cpus.inst     0.118553                       # mshr miss ratio for overall accesses (Ratio)
system.cpu_cluster.cpus.icache.overallMshrMissRate::total     0.118553                       # mshr miss ratio for overall accesses (Ratio)
system.cpu_cluster.cpus.icache.demandAvgMshrMissLatency::cpu_cluster.cpus.inst 58692.796610                       # average overall mshr miss latency ((Tick/Count))
system.cpu_cluster.cpus.icache.demandAvgMshrMissLatency::total 58692.796610                       # average overall mshr miss latency ((Tick/Count))
system.cpu_cluster.cpus.icache.overallAvgMshrMissLatency::cpu_cluster.cpus.inst 58692.796610                       # average overall mshr miss latency ((Tick/Count))
system.cpu_cluster.cpus.icache.overallAvgMshrMissLatency::total 58692.796610                       # average overall mshr miss latency ((Tick/Count))
system.cpu_cluster.cpus.icache.replacements           65                       # number of replacements (Count)
system.cpu_cluster.cpus.icache.ReadReq.hits::cpu_cluster.cpus.inst         2632                       # number of ReadReq hits (Count)
system.cpu_cluster.cpus.icache.ReadReq.hits::total         2632                       # number of ReadReq hits (Count)
system.cpu_cluster.cpus.icache.ReadReq.misses::cpu_cluster.cpus.inst          354                       # number of ReadReq misses (Count)
system.cpu_cluster.cpus.icache.ReadReq.misses::total          354                       # number of ReadReq misses (Count)
system.cpu_cluster.cpus.icache.ReadReq.missLatency::cpu_cluster.cpus.inst     20865500                       # number of ReadReq miss ticks (Tick)
system.cpu_cluster.cpus.icache.ReadReq.missLatency::total     20865500                       # number of ReadReq miss ticks (Tick)
system.cpu_cluster.cpus.icache.ReadReq.accesses::cpu_cluster.cpus.inst         2986                       # number of ReadReq accesses(hits+misses) (Count)
system.cpu_cluster.cpus.icache.ReadReq.accesses::total         2986                       # number of ReadReq accesses(hits+misses) (Count)
system.cpu_cluster.cpus.icache.ReadReq.missRate::cpu_cluster.cpus.inst     0.118553                       # miss rate for ReadReq accesses (Ratio)
system.cpu_cluster.cpus.icache.ReadReq.missRate::total     0.118553                       # miss rate for ReadReq accesses (Ratio)
system.cpu_cluster.cpus.icache.ReadReq.avgMissLatency::cpu_cluster.cpus.inst 58942.090395                       # average ReadReq miss latency ((Tick/Count))
system.cpu_cluster.cpus.icache.ReadReq.avgMissLatency::total 58942.090395                       # average ReadReq miss latency ((Tick/Count))
system.cpu_cluster.cpus.icache.ReadReq.mshrMisses::cpu_cluster.cpus.inst          354                       # number of ReadReq MSHR misses (Count)
system.cpu_cluster.cpus.icache.ReadReq.mshrMisses::total          354                       # number of ReadReq MSHR misses (Count)
system.cpu_cluster.cpus.icache.ReadReq.mshrMissLatency::cpu_cluster.cpus.inst     20777250                       # number of ReadReq MSHR miss ticks (Tick)
system.cpu_cluster.cpus.icache.ReadReq.mshrMissLatency::total     20777250                       # number of ReadReq MSHR miss ticks (Tick)
system.cpu_cluster.cpus.icache.ReadReq.mshrMissRate::cpu_cluster.cpus.inst     0.118553                       # mshr miss rate for ReadReq accesses (Ratio)
system.cpu_cluster.cpus.icache.ReadReq.mshrMissRate::total     0.118553                       # mshr miss rate for ReadReq accesses (Ratio)
system.cpu_cluster.cpus.icache.ReadReq.avgMshrMissLatency::cpu_cluster.cpus.inst 58692.796610                       # average ReadReq mshr miss latency ((Tick/Count))
system.cpu_cluster.cpus.icache.ReadReq.avgMshrMissLatency::total 58692.796610                       # average ReadReq mshr miss latency ((Tick/Count))
system.cpu_cluster.cpus.icache.power_state.pwrStateResidencyTicks::UNDEFINED     27416500                       # Cumulative time (in ticks) in various power states (Tick)
system.cpu_cluster.cpus.icache.tags.tagsInUse   155.084935                       # Average ticks per tags in use ((Tick/Count))
system.cpu_cluster.cpus.icache.tags.totalRefs          950                       # Total number of references to valid blocks. (Count)
system.cpu_cluster.cpus.icache.tags.sampledRefs           65                       # Sample count of references to valid blocks. (Count)
system.cpu_cluster.cpus.icache.tags.avgRefs    14.615385                       # Average number of references to valid blocks. ((Count/Count))
system.cpu_cluster.cpus.icache.tags.warmupTick        78500                       # The tick when the warmup percentage was hit. (Tick)
system.cpu_cluster.cpus.icache.tags.occupancies::cpu_cluster.cpus.inst   155.084935                       # Average occupied blocks per tick, per requestor ((Count/Tick))
system.cpu_cluster.cpus.icache.tags.avgOccs::cpu_cluster.cpus.inst     0.302900                       # Average percentage of cache occupancy ((Ratio/Tick))
system.cpu_cluster.cpus.icache.tags.avgOccs::total     0.302900                       # Average percentage of cache occupancy ((Ratio/Tick))
system.cpu_cluster.cpus.icache.tags.occupanciesTaskId::1024          288                       # Occupied blocks per task id (Count)
system.cpu_cluster.cpus.icache.tags.ageTaskId_1024::0          123                       # Occupied blocks per task id, per block age (Count)
system.cpu_cluster.cpus.icache.tags.ageTaskId_1024::1          165                       # Occupied blocks per task id, per block age (Count)
system.cpu_cluster.cpus.icache.tags.ratioOccsTaskId::1024     0.562500                       # Ratio of occupied blocks and all blocks, per task id (Ratio)
system.cpu_cluster.cpus.icache.tags.tagAccesses         6325                       # Number of tag accesses (Count)
system.cpu_cluster.cpus.icache.tags.dataAccesses         6325                       # Number of data accesses (Count)
system.cpu_cluster.cpus.icache.tags.power_state.pwrStateResidencyTicks::UNDEFINED     27416500                       # Cumulative time (in ticks) in various power states (Tick)
system.cpu_cluster.cpus.mmu.alignFaults             0                       # Number of MMU faults due to alignment restrictions (Count)
system.cpu_cluster.cpus.mmu.prefetchFaults            0                       # Number of MMU faults due to prefetch (Count)
system.cpu_cluster.cpus.mmu.domainFaults            0                       # Number of MMU faults due to domain restrictions (Count)
system.cpu_cluster.cpus.mmu.permsFaults             0                       # Number of MMU faults due to permissions restrictions (Count)
system.cpu_cluster.cpus.mmu.dtb.readHits            0                       # Read hits (Count)
system.cpu_cluster.cpus.mmu.dtb.readMisses            0                       # Read misses (Count)
system.cpu_cluster.cpus.mmu.dtb.writeHits            0                       # Write hits (Count)
system.cpu_cluster.cpus.mmu.dtb.writeMisses            0                       # Write misses (Count)
system.cpu_cluster.cpus.mmu.dtb.inserts             0                       # Number of times an entry is inserted into the TLB (Count)
system.cpu_cluster.cpus.mmu.dtb.flushTlb            0                       # Number of times a TLB invalidation was requested (Count)
system.cpu_cluster.cpus.mmu.dtb.flushedEntries            0                       # Number of entries that have been flushed from TLB (Count)
system.cpu_cluster.cpus.mmu.dtb.readAccesses            0                       # Read accesses (Count)
system.cpu_cluster.cpus.mmu.dtb.writeAccesses            0                       # Write accesses (Count)
system.cpu_cluster.cpus.mmu.dtb.hits                0                       # Total TLB (inst and data) hits (Count)
system.cpu_cluster.cpus.mmu.dtb.misses              0                       # Total TLB (inst and data) misses (Count)
system.cpu_cluster.cpus.mmu.dtb.accesses            0                       # Total TLB (inst and data) accesses (Count)
system.cpu_cluster.cpus.mmu.dtb_walker.walks            0                       # Table walker walks requested (Count)
system.cpu_cluster.cpus.mmu.dtb_walker.requestOrigin_Requested::Data            0                       # Table walker requests started/completed, data/inst (Count)
system.cpu_cluster.cpus.mmu.dtb_walker.requestOrigin_Requested::Inst            0                       # Table walker requests started/completed, data/inst (Count)
system.cpu_cluster.cpus.mmu.dtb_walker.requestOrigin_Requested::total            0                       # Table walker requests started/completed, data/inst (Count)
system.cpu_cluster.cpus.mmu.dtb_walker.requestOrigin_Completed::Data            0                       # Table walker requests started/completed, data/inst (Count)
system.cpu_cluster.cpus.mmu.dtb_walker.requestOrigin_Completed::Inst            0                       # Table walker requests started/completed, data/inst (Count)
system.cpu_cluster.cpus.mmu.dtb_walker.requestOrigin_Completed::total            0                       # Table walker requests started/completed, data/inst (Count)
system.cpu_cluster.cpus.mmu.dtb_walker.requestOrigin::total            0                       # Table walker requests started/completed, data/inst (Count)
system.cpu_cluster.cpus.mmu.dtb_walker.power_state.pwrStateResidencyTicks::UNDEFINED     27416500                       # Cumulative time (in ticks) in various power states (Tick)
system.cpu_cluster.cpus.mmu.itb.instHits            0                       # Inst hits (Count)
system.cpu_cluster.cpus.mmu.itb.instMisses            0                       # Inst misses (Count)
system.cpu_cluster.cpus.mmu.itb.inserts             0                       # Number of times an entry is inserted into the TLB (Count)
system.cpu_cluster.cpus.mmu.itb.flushTlb            0                       # Number of times a TLB invalidation was requested (Count)
system.cpu_cluster.cpus.mmu.itb.flushedEntries            0                       # Number of entries that have been flushed from TLB (Count)
system.cpu_cluster.cpus.mmu.itb.instAccesses            0                       # Inst accesses (Count)
system.cpu_cluster.cpus.mmu.itb.hits                0                       # Total TLB (inst and data) hits (Count)
system.cpu_cluster.cpus.mmu.itb.misses              0                       # Total TLB (inst and data) misses (Count)
system.cpu_cluster.cpus.mmu.itb.accesses            0                       # Total TLB (inst and data) accesses (Count)
system.cpu_cluster.cpus.mmu.itb_walker.walks            0                       # Table walker walks requested (Count)
system.cpu_cluster.cpus.mmu.itb_walker.requestOrigin_Requested::Data            0                       # Table walker requests started/completed, data/inst (Count)
system.cpu_cluster.cpus.mmu.itb_walker.requestOrigin_Requested::Inst            0                       # Table walker requests started/completed, data/inst (Count)
system.cpu_cluster.cpus.mmu.itb_walker.requestOrigin_Requested::total            0                       # Table walker requests started/completed, data/inst (Count)
system.cpu_cluster.cpus.mmu.itb_walker.requestOrigin_Completed::Data            0                       # Table walker requests started/completed, data/inst (Count)
system.cpu_cluster.cpus.mmu.itb_walker.requestOrigin_Completed::Inst            0                       # Table walker requests started/completed, data/inst (Count)
system.cpu_cluster.cpus.mmu.itb_walker.requestOrigin_Completed::total            0                       # Table walker requests started/completed, data/inst (Count)
system.cpu_cluster.cpus.mmu.itb_walker.requestOrigin::total            0                       # Table walker requests started/completed, data/inst (Count)
system.cpu_cluster.cpus.mmu.itb_walker.power_state.pwrStateResidencyTicks::UNDEFINED     27416500                       # Cumulative time (in ticks) in various power states (Tick)
system.cpu_cluster.cpus.mmu.l2_shared.instHits            0                       # Inst hits (Count)
system.cpu_cluster.cpus.mmu.l2_shared.instMisses            0                       # Inst misses (Count)
system.cpu_cluster.cpus.mmu.l2_shared.inserts            0                       # Number of times an entry is inserted into the TLB (Count)
system.cpu_cluster.cpus.mmu.l2_shared.flushTlb            0                       # Number of times a TLB invalidation was requested (Count)
system.cpu_cluster.cpus.mmu.l2_shared.flushedEntries            0                       # Number of entries that have been flushed from TLB (Count)
system.cpu_cluster.cpus.mmu.l2_shared.instAccesses            0                       # Inst accesses (Count)
system.cpu_cluster.cpus.mmu.l2_shared.hits            0                       # Total TLB (inst and data) hits (Count)
system.cpu_cluster.cpus.mmu.l2_shared.misses            0                       # Total TLB (inst and data) misses (Count)
system.cpu_cluster.cpus.mmu.l2_shared.accesses            0                       # Total TLB (inst and data) accesses (Count)
system.cpu_cluster.cpus.mmu.stage2_dtb.readHits            0                       # Read hits (Count)
system.cpu_cluster.cpus.mmu.stage2_dtb.readMisses            0                       # Read misses (Count)
system.cpu_cluster.cpus.mmu.stage2_dtb.writeHits            0                       # Write hits (Count)
system.cpu_cluster.cpus.mmu.stage2_dtb.writeMisses            0                       # Write misses (Count)
system.cpu_cluster.cpus.mmu.stage2_dtb.inserts            0                       # Number of times an entry is inserted into the TLB (Count)
system.cpu_cluster.cpus.mmu.stage2_dtb.flushTlb            0                       # Number of times a TLB invalidation was requested (Count)
system.cpu_cluster.cpus.mmu.stage2_dtb.flushedEntries            0                       # Number of entries that have been flushed from TLB (Count)
system.cpu_cluster.cpus.mmu.stage2_dtb.readAccesses            0                       # Read accesses (Count)
system.cpu_cluster.cpus.mmu.stage2_dtb.writeAccesses            0                       # Write accesses (Count)
system.cpu_cluster.cpus.mmu.stage2_dtb.hits            0                       # Total TLB (inst and data) hits (Count)
system.cpu_cluster.cpus.mmu.stage2_dtb.misses            0                       # Total TLB (inst and data) misses (Count)
system.cpu_cluster.cpus.mmu.stage2_dtb.accesses            0                       # Total TLB (inst and data) accesses (Count)
system.cpu_cluster.cpus.mmu.stage2_dtb_walker.walks            0                       # Table walker walks requested (Count)
system.cpu_cluster.cpus.mmu.stage2_dtb_walker.requestOrigin_Requested::Data            0                       # Table walker requests started/completed, data/inst (Count)
system.cpu_cluster.cpus.mmu.stage2_dtb_walker.requestOrigin_Requested::Inst            0                       # Table walker requests started/completed, data/inst (Count)
system.cpu_cluster.cpus.mmu.stage2_dtb_walker.requestOrigin_Requested::total            0                       # Table walker requests started/completed, data/inst (Count)
system.cpu_cluster.cpus.mmu.stage2_dtb_walker.requestOrigin_Completed::Data            0                       # Table walker requests started/completed, data/inst (Count)
system.cpu_cluster.cpus.mmu.stage2_dtb_walker.requestOrigin_Completed::Inst            0                       # Table walker requests started/completed, data/inst (Count)
system.cpu_cluster.cpus.mmu.stage2_dtb_walker.requestOrigin_Completed::total            0                       # Table walker requests started/completed, data/inst (Count)
system.cpu_cluster.cpus.mmu.stage2_dtb_walker.requestOrigin::total            0                       # Table walker requests started/completed, data/inst (Count)
system.cpu_cluster.cpus.mmu.stage2_dtb_walker.power_state.pwrStateResidencyTicks::UNDEFINED     27416500                       # Cumulative time (in ticks) in various power states (Tick)
system.cpu_cluster.cpus.mmu.stage2_itb.instHits            0                       # Inst hits (Count)
system.cpu_cluster.cpus.mmu.stage2_itb.instMisses            0                       # Inst misses (Count)
system.cpu_cluster.cpus.mmu.stage2_itb.inserts            0                       # Number of times an entry is inserted into the TLB (Count)
system.cpu_cluster.cpus.mmu.stage2_itb.flushTlb            0                       # Number of times a TLB invalidation was requested (Count)
system.cpu_cluster.cpus.mmu.stage2_itb.flushedEntries            0                       # Number of entries that have been flushed from TLB (Count)
system.cpu_cluster.cpus.mmu.stage2_itb.instAccesses            0                       # Inst accesses (Count)
system.cpu_cluster.cpus.mmu.stage2_itb.hits            0                       # Total TLB (inst and data) hits (Count)
system.cpu_cluster.cpus.mmu.stage2_itb.misses            0                       # Total TLB (inst and data) misses (Count)
system.cpu_cluster.cpus.mmu.stage2_itb.accesses            0                       # Total TLB (inst and data) accesses (Count)
system.cpu_cluster.cpus.mmu.stage2_itb_walker.walks            0                       # Table walker walks requested (Count)
system.cpu_cluster.cpus.mmu.stage2_itb_walker.requestOrigin_Requested::Data            0                       # Table walker requests started/completed, data/inst (Count)
system.cpu_cluster.cpus.mmu.stage2_itb_walker.requestOrigin_Requested::Inst            0                       # Table walker requests started/completed, data/inst (Count)
system.cpu_cluster.cpus.mmu.stage2_itb_walker.requestOrigin_Requested::total            0                       # Table walker requests started/completed, data/inst (Count)
system.cpu_cluster.cpus.mmu.stage2_itb_walker.requestOrigin_Completed::Data            0                       # Table walker requests started/completed, data/inst (Count)
system.cpu_cluster.cpus.mmu.stage2_itb_walker.requestOrigin_Completed::Inst            0                       # Table walker requests started/completed, data/inst (Count)
system.cpu_cluster.cpus.mmu.stage2_itb_walker.requestOrigin_Completed::total            0                       # Table walker requests started/completed, data/inst (Count)
system.cpu_cluster.cpus.mmu.stage2_itb_walker.requestOrigin::total            0                       # Table walker requests started/completed, data/inst (Count)
system.cpu_cluster.cpus.mmu.stage2_itb_walker.power_state.pwrStateResidencyTicks::UNDEFINED     27416500                       # Cumulative time (in ticks) in various power states (Tick)
system.cpu_cluster.cpus.power_state.pwrStateResidencyTicks::ON     27416500                       # Cumulative time (in ticks) in various power states (Tick)
system.cpu_cluster.cpus.thread_0.numInsts         5397                       # Number of Instructions committed (Count)
system.cpu_cluster.cpus.thread_0.numOps          6377                       # Number of Ops committed (Count)
system.cpu_cluster.cpus.thread_0.numMemRefs            0                       # Number of Memory References (Count)
system.cpu_cluster.cpus.workload.numSyscalls            7                       # Number of system calls (Count)
system.cpu_cluster.l2.demandHits::cpu_cluster.cpus.inst           11                       # number of demand (read+write) hits (Count)
system.cpu_cluster.l2.demandHits::cpu_cluster.cpus.data           48                       # number of demand (read+write) hits (Count)
system.cpu_cluster.l2.demandHits::cpu_cluster.cpus.dcache.prefetcher            2                       # number of demand (read+write) hits (Count)
system.cpu_cluster.l2.demandHits::total            61                       # number of demand (read+write) hits (Count)
system.cpu_cluster.l2.overallHits::cpu_cluster.cpus.inst           11                       # number of overall hits (Count)
system.cpu_cluster.l2.overallHits::cpu_cluster.cpus.data           48                       # number of overall hits (Count)
system.cpu_cluster.l2.overallHits::cpu_cluster.cpus.dcache.prefetcher            2                       # number of overall hits (Count)
system.cpu_cluster.l2.overallHits::total           61                       # number of overall hits (Count)
system.cpu_cluster.l2.demandMisses::cpu_cluster.cpus.inst          343                       # number of demand (read+write) misses (Count)
system.cpu_cluster.l2.demandMisses::cpu_cluster.cpus.data          158                       # number of demand (read+write) misses (Count)
system.cpu_cluster.l2.demandMisses::cpu_cluster.cpus.dcache.prefetcher           12                       # number of demand (read+write) misses (Count)
system.cpu_cluster.l2.demandMisses::total          513                       # number of demand (read+write) misses (Count)
system.cpu_cluster.l2.overallMisses::cpu_cluster.cpus.inst          343                       # number of overall misses (Count)
system.cpu_cluster.l2.overallMisses::cpu_cluster.cpus.data          158                       # number of overall misses (Count)
system.cpu_cluster.l2.overallMisses::cpu_cluster.cpus.dcache.prefetcher           12                       # number of overall misses (Count)
system.cpu_cluster.l2.overallMisses::total          513                       # number of overall misses (Count)
system.cpu_cluster.l2.demandMissLatency::cpu_cluster.cpus.inst     20562000                       # number of demand (read+write) miss ticks (Tick)
system.cpu_cluster.l2.demandMissLatency::cpu_cluster.cpus.data      9680250                       # number of demand (read+write) miss ticks (Tick)
system.cpu_cluster.l2.demandMissLatency::cpu_cluster.cpus.dcache.prefetcher       688240                       # number of demand (read+write) miss ticks (Tick)
system.cpu_cluster.l2.demandMissLatency::total     30930490                       # number of demand (read+write) miss ticks (Tick)
system.cpu_cluster.l2.overallMissLatency::cpu_cluster.cpus.inst     20562000                       # number of overall miss ticks (Tick)
system.cpu_cluster.l2.overallMissLatency::cpu_cluster.cpus.data      9680250                       # number of overall miss ticks (Tick)
system.cpu_cluster.l2.overallMissLatency::cpu_cluster.cpus.dcache.prefetcher       688240                       # number of overall miss ticks (Tick)
system.cpu_cluster.l2.overallMissLatency::total     30930490                       # number of overall miss ticks (Tick)
system.cpu_cluster.l2.demandAccesses::cpu_cluster.cpus.inst          354                       # number of demand (read+write) accesses (Count)
system.cpu_cluster.l2.demandAccesses::cpu_cluster.cpus.data          206                       # number of demand (read+write) accesses (Count)
system.cpu_cluster.l2.demandAccesses::cpu_cluster.cpus.dcache.prefetcher           14                       # number of demand (read+write) accesses (Count)
system.cpu_cluster.l2.demandAccesses::total          574                       # number of demand (read+write) accesses (Count)
system.cpu_cluster.l2.overallAccesses::cpu_cluster.cpus.inst          354                       # number of overall (read+write) accesses (Count)
system.cpu_cluster.l2.overallAccesses::cpu_cluster.cpus.data          206                       # number of overall (read+write) accesses (Count)
[...]
system.mem_ctrls1.dram.bwRead::cpu_cluster.cpus.data    134187839                       # Total read bandwidth from this memory ((Byte/Second))
system.mem_ctrls1.dram.bwRead::cpu_cluster.cpus.dcache.prefetcher    500424260                       # Total read bandwidth from this memory ((Byte/Second))
system.mem_ctrls1.dram.bwRead::total        780661846                       # Total read bandwidth from this memory ((Byte/Second))
system.mem_ctrls1.dram.bwInstRead::cpu_cluster.cpus.inst    146049747                       # Instruction read bandwidth from this memory ((Byte/Second))
system.mem_ctrls1.dram.bwInstRead::total    146049747                       # Instruction read bandwidth from this memory ((Byte/Second))
system.mem_ctrls1.dram.bwTotal::cpu_cluster.cpus.inst    146049747                       # Total bandwidth to/from this memory ((Byte/Second))
system.mem_ctrls1.dram.bwTotal::cpu_cluster.cpus.data    134187839                       # Total bandwidth to/from this memory ((Byte/Second))
system.mem_ctrls1.dram.bwTotal::cpu_cluster.cpus.dcache.prefetcher    500424260                       # Total bandwidth to/from this memory ((Byte/Second))
system.mem_ctrls1.dram.bwTotal::total       780661846                       # Total bandwidth to/from this memory ((Byte/Second))
system.mem_ctrls1.dram.readBursts                1053                       # Number of DRAM read bursts (Count)
system.mem_ctrls1.dram.writeBursts                  0                       # Number of DRAM write bursts (Count)
system.mem_ctrls1.dram.perBankRdBursts::0          156                       # Per bank write bursts (Count)
system.mem_ctrls1.dram.perBankRdBursts::1          145                       # Per bank write bursts (Count)
system.mem_ctrls1.dram.perBankRdBursts::2          130                       # Per bank write bursts (Count)
system.mem_ctrls1.dram.perBankRdBursts::3          148                       # Per bank write bursts (Count)
system.mem_ctrls1.dram.perBankRdBursts::4          166                       # Per bank write bursts (Count)
system.mem_ctrls1.dram.perBankRdBursts::5           51                       # Per bank write bursts (Count)
system.mem_ctrls1.dram.perBankRdBursts::6           41                       # Per bank write bursts (Count)
system.mem_ctrls1.dram.perBankRdBursts::7            0                       # Per bank write bursts (Count)
system.mem_ctrls1.dram.perBankRdBursts::8            0                       # Per bank write bursts (Count)
system.mem_ctrls1.dram.perBankRdBursts::9            3                       # Per bank write bursts (Count)
system.mem_ctrls1.dram.perBankRdBursts::10            0                       # Per bank write bursts (Count)
system.mem_ctrls1.dram.perBankRdBursts::11            1                       # Per bank write bursts (Count)
system.mem_ctrls1.dram.perBankRdBursts::12            0                       # Per bank write bursts (Count)
system.mem_ctrls1.dram.perBankRdBursts::13            8                       # Per bank write bursts (Count)
system.mem_ctrls1.dram.perBankRdBursts::14           59                       # Per bank write bursts (Count)
system.mem_ctrls1.dram.perBankRdBursts::15          145                       # Per bank write bursts (Count)
system.mem_ctrls1.dram.perBankWrBursts::0            0                       # Per bank write bursts (Count)
system.mem_ctrls1.dram.perBankWrBursts::1            0                       # Per bank write bursts (Count)
system.mem_ctrls1.dram.perBankWrBursts::2            0                       # Per bank write bursts (Count)
system.mem_ctrls1.dram.perBankWrBursts::3            0                       # Per bank write bursts (Count)
system.mem_ctrls1.dram.perBankWrBursts::4            0                       # Per bank write bursts (Count)
system.mem_ctrls1.dram.perBankWrBursts::5            0                       # Per bank write bursts (Count)
system.mem_ctrls1.dram.perBankWrBursts::6            0                       # Per bank write bursts (Count)
system.mem_ctrls1.dram.perBankWrBursts::7            0                       # Per bank write bursts (Count)
system.mem_ctrls1.dram.perBankWrBursts::8            0                       # Per bank write bursts (Count)
system.mem_ctrls1.dram.perBankWrBursts::9            0                       # Per bank write bursts (Count)
system.mem_ctrls1.dram.perBankWrBursts::10            0                       # Per bank write bursts (Count)
system.mem_ctrls1.dram.perBankWrBursts::11            0                       # Per bank write bursts (Count)
system.mem_ctrls1.dram.perBankWrBursts::12            0                       # Per bank write bursts (Count)
system.mem_ctrls1.dram.perBankWrBursts::13            0                       # Per bank write bursts (Count)
system.mem_ctrls1.dram.perBankWrBursts::14            0                       # Per bank write bursts (Count)
system.mem_ctrls1.dram.perBankWrBursts::15            0                       # Per bank write bursts (Count)
system.mem_ctrls1.dram.totQLat                5564764                       # Total ticks spent queuing (Tick)
system.mem_ctrls1.dram.totBusLat              5265000                       # Total ticks spent in databus transfers (Tick)
system.mem_ctrls1.dram.totMemAccLat          25308514                       # Total ticks spent from burst creation until serviced by the DRAM (Tick)
system.mem_ctrls1.dram.avgQLat                5284.68                       # Average queueing delay per DRAM burst ((Tick/Count))
system.mem_ctrls1.dram.avgBusLat              5000.00                       # Average bus latency per DRAM burst ((Tick/Count))
system.mem_ctrls1.dram.avgMemAccLat          24034.68                       # Average memory access latency per DRAM burst ((Tick/Count))
system.mem_ctrls1.dram.readRowHits                928                       # Number of row buffer hits during reads (Count)
system.mem_ctrls1.dram.writeRowHits                 0                       # Number of row buffer hits during writes (Count)
system.mem_ctrls1.dram.readRowHitRate           88.13                       # Row buffer hit rate for reads (Ratio)
system.mem_ctrls1.dram.writeRowHitRate            nan                       # Row buffer hit rate for writes (Ratio)
system.mem_ctrls1.dram.bytesPerActivate::samples          124                       # Bytes accessed per row activation (Byte)
system.mem_ctrls1.dram.bytesPerActivate::mean   541.935484                       # Bytes accessed per row activation (Byte)
system.mem_ctrls1.dram.bytesPerActivate::gmean   385.560280                       # Bytes accessed per row activation (Byte)
system.mem_ctrls1.dram.bytesPerActivate::stdev   383.690758                       # Bytes accessed per row activation (Byte)
system.mem_ctrls1.dram.bytesPerActivate::0-127           12      9.68%      9.68% # Bytes accessed per row activation (Byte)
system.mem_ctrls1.dram.bytesPerActivate::128-255           16     12.90%     22.58% # Bytes accessed per row activation (Byte)
system.mem_ctrls1.dram.bytesPerActivate::256-383           29     23.39%     45.97% # Bytes accessed per row activation (Byte)
system.mem_ctrls1.dram.bytesPerActivate::384-511           16     12.90%     58.87% # Bytes accessed per row activation (Byte)
system.mem_ctrls1.dram.bytesPerActivate::512-639            2      1.61%     60.48% # Bytes accessed per row activation (Byte)
system.mem_ctrls1.dram.bytesPerActivate::640-767            1      0.81%     61.29% # Bytes accessed per row activation (Byte)
system.mem_ctrls1.dram.bytesPerActivate::768-895            4      3.23%     64.52% # Bytes accessed per row activation (Byte)
system.mem_ctrls1.dram.bytesPerActivate::896-1023            2      1.61%     66.13% # Bytes accessed per row activation (Byte)
system.mem_ctrls1.dram.bytesPerActivate::1024-1151           42     33.87%    100.00% # Bytes accessed per row activation (Byte)
system.mem_ctrls1.dram.bytesPerActivate::total          124                       # Bytes accessed per row activation (Byte)
system.mem_ctrls1.dram.bytesRead                67392                       # Total bytes read (Byte)
system.mem_ctrls1.dram.bytesWritten                 0                       # Total bytes written (Byte)
system.mem_ctrls1.dram.avgRdBW             780.661846                       # Average DRAM read bandwidth in MiBytes/s ((Byte/Second))
system.mem_ctrls1.dram.avgWrBW                      0                       # Average DRAM write bandwidth in MiBytes/s ((Byte/Second))
system.mem_ctrls1.dram.peakBW                12800.00                       # Theoretical peak bandwidth in MiByte/s ((Byte/Second))
system.mem_ctrls1.dram.busUtil                   6.10                       # Data bus utilization in percentage (Ratio)
system.mem_ctrls1.dram.busUtilRead               6.10                       # Data bus utilization in percentage for reads (Ratio)
system.mem_ctrls1.dram.busUtilWrite              0.00                       # Data bus utilization in percentage for writes (Ratio)
system.mem_ctrls1.dram.pageHitRate              88.13                       # Row buffer hit rate, read and write combined (Ratio)
system.mem_ctrls1.dram.power_state.pwrStateResidencyTicks::UNDEFINED     86326750                       # Cumulative time (in ticks) in various power states (Tick)
system.mem_ctrls1.dram.rank0.actEnergy         714000                       # Energy for activate commands per rank (pJ) (Joule)
system.mem_ctrls1.dram.rank0.preEnergy         375705                       # Energy for precharge commands per rank (pJ) (Joule)
system.mem_ctrls1.dram.rank0.readEnergy       5976180                       # Energy for read commands per rank (pJ) (Joule)
system.mem_ctrls1.dram.rank0.writeEnergy            0                       # Energy for write commands per rank (pJ) (Joule)
system.mem_ctrls1.dram.rank0.refreshEnergy 6761040.000000                       # Energy for refresh commands per rank (pJ) (Joule)
system.mem_ctrls1.dram.rank0.actBackEnergy     38408880                       # Energy for active background per rank (pJ) (Joule)
system.mem_ctrls1.dram.rank0.preBackEnergy       805440                       # Energy for precharge background per rank (pJ) (Joule)
system.mem_ctrls1.dram.rank0.actPowerDownEnergy            0                       # Energy for active power-down per rank (pJ) (Joule)
system.mem_ctrls1.dram.rank0.prePowerDownEnergy            0                       # Energy for precharge power-down per rank (pJ) (Joule)
system.mem_ctrls1.dram.rank0.selfRefreshEnergy            0                       # Energy for self refresh per rank (pJ) (Joule)
system.mem_ctrls1.dram.rank0.totalEnergy     53041245                       # Total energy per rank (pJ) (Joule)
system.mem_ctrls1.dram.rank0.averagePower   614.424208                       # Core power per rank (mW) (Watt)
system.mem_ctrls1.dram.rank0.totalIdleTime            0                       # Total Idle time Per DRAM Rank (Tick)
system.mem_ctrls1.dram.rank0.pwrStateTime::IDLE      1709268                       # Time in different power states (Tick)
system.mem_ctrls1.dram.rank0.pwrStateTime::REF      2860000                       # Time in different power states (Tick)
system.mem_ctrls1.dram.rank0.pwrStateTime::SREF            0                       # Time in different power states (Tick)
system.mem_ctrls1.dram.rank0.pwrStateTime::PRE_PDN            0                       # Time in different power states (Tick)
system.mem_ctrls1.dram.rank0.pwrStateTime::ACT     81757482                       # Time in different power states (Tick)
system.mem_ctrls1.dram.rank0.pwrStateTime::ACT_PDN            0                       # Time in different power states (Tick)
system.mem_ctrls1.dram.rank1.actEnergy         178500                       # Energy for activate commands per rank (pJ) (Joule)
system.mem_ctrls1.dram.rank1.preEnergy          94875                       # Energy for precharge commands per rank (pJ) (Joule)
system.mem_ctrls1.dram.rank1.readEnergy       1542240                       # Energy for read commands per rank (pJ) (Joule)
system.mem_ctrls1.dram.rank1.writeEnergy            0                       # Energy for write commands per rank (pJ) (Joule)
system.mem_ctrls1.dram.rank1.refreshEnergy 6761040.000000                       # Energy for refresh commands per rank (pJ) (Joule)
system.mem_ctrls1.dram.rank1.actBackEnergy     26679990                       # Energy for active background per rank (pJ) (Joule)
system.mem_ctrls1.dram.rank1.preBackEnergy     10682400                       # Energy for precharge background per rank (pJ) (Joule)
system.mem_ctrls1.dram.rank1.actPowerDownEnergy            0                       # Energy for active power-down per rank (pJ) (Joule)
system.mem_ctrls1.dram.rank1.prePowerDownEnergy            0                       # Energy for precharge power-down per rank (pJ) (Joule)
system.mem_ctrls1.dram.rank1.selfRefreshEnergy            0                       # Energy for self refresh per rank (pJ) (Joule)
system.mem_ctrls1.dram.rank1.totalEnergy     45939045                       # Total energy per rank (pJ) (Joule)
system.mem_ctrls1.dram.rank1.averagePower   532.153070                       # Core power per rank (mW) (Watt)
system.mem_ctrls1.dram.rank1.totalIdleTime            0                       # Total Idle time Per DRAM Rank (Tick)
system.mem_ctrls1.dram.rank1.pwrStateTime::IDLE     27427001                       # Time in different power states (Tick)
system.mem_ctrls1.dram.rank1.pwrStateTime::REF      2860000                       # Time in different power states (Tick)
system.mem_ctrls1.dram.rank1.pwrStateTime::SREF            0                       # Time in different power states (Tick)
system.mem_ctrls1.dram.rank1.pwrStateTime::PRE_PDN            0                       # Time in different power states (Tick)
system.mem_ctrls1.dram.rank1.pwrStateTime::ACT     56039749                       # Time in different power states (Tick)
system.mem_ctrls1.dram.rank1.pwrStateTime::ACT_PDN            0                       # Time in different power states (Tick)
system.mem_ctrls1.power_state.pwrStateResidencyTicks::UNDEFINED     86326750                       # Cumulative time (in ticks) in various power states (Tick)
system.membus.transDist::ReadResp                1851                       # Transaction distribution (Count)
system.membus.transDist::ReadExReq                258                       # Transaction distribution (Count)
system.membus.transDist::ReadExResp               258                       # Transaction distribution (Count)
system.membus.transDist::ReadSharedReq           1852                       # Transaction distribution (Count)
system.membus.transDist::InvalidateReq              3                       # Transaction distribution (Count)
system.membus.pktCount_system.cpu_cluster.l2.mem_side_port::system.mem_ctrls0.port         2115                       # Packet count per connected requestor and responder (Count)
system.membus.pktCount_system.cpu_cluster.l2.mem_side_port::system.mem_ctrls1.port         2107                       # Packet count per connected requestor and responder (Count)
system.membus.pktCount_system.cpu_cluster.l2.mem_side_port::total         4222                       # Packet count per connected requestor and responder (Count)
system.membus.pktCount::total                    4222                       # Packet count per connected requestor and responder (Count)
system.membus.pktSize_system.cpu_cluster.l2.mem_side_port::system.mem_ctrls0.port        67584                       # Cumulative packet size per connected requestor and responder (Byte)
system.membus.pktSize_system.cpu_cluster.l2.mem_side_port::system.mem_ctrls1.port        67392                       # Cumulative packet size per connected requestor and responder (Byte)
system.membus.pktSize_system.cpu_cluster.l2.mem_side_port::total       134976                       # Cumulative packet size per connected requestor and responder (Byte)
system.membus.pktSize::total                   134976                       # Cumulative packet size per connected requestor and responder (Byte)
system.membus.snoops                                0                       # Total snoops (Count)
system.membus.snoopTraffic                          0                       # Total snoop traffic (Byte)
system.membus.snoopFanout::samples               2113                       # Request fanout histogram (Count)
system.membus.snoopFanout::mean                     0                       # Request fanout histogram (Count)
system.membus.snoopFanout::stdev                    0                       # Request fanout histogram (Count)
system.membus.snoopFanout::underflows               0      0.00%      0.00% # Request fanout histogram (Count)
system.membus.snoopFanout::0                     2113    100.00%    100.00% # Request fanout histogram (Count)
system.membus.snoopFanout::1                        0      0.00%    100.00% # Request fanout histogram (Count)
system.membus.snoopFanout::overflows                0      0.00%    100.00% # Request fanout histogram (Count)
system.membus.snoopFanout::min_value                0                       # Request fanout histogram (Count)
system.membus.snoopFanout::max_value                0                       # Request fanout histogram (Count)
system.membus.snoopFanout::total                 2113                       # Request fanout histogram (Count)
system.membus.power_state.pwrStateResidencyTicks::UNDEFINED     86326750                       # Cumulative time (in ticks) in various power states (Tick)
system.membus.reqLayer0.occupancy             1429856                       # Layer occupancy (ticks) (Tick)
system.membus.reqLayer0.utilization               0.0                       # Layer utilization (Ratio)
system.membus.reqLayer1.occupancy             1424125                       # Layer occupancy (ticks) (Tick)
system.membus.reqLayer1.utilization               0.0                       # Layer utilization (Ratio)
system.membus.respLayer1.occupancy           11070983                       # Layer occupancy (ticks) (Tick)
system.membus.respLayer1.utilization              0.1                       # Layer utilization (Ratio)
system.membus.snoop_filter.totRequests           2113                       # Total number of requests made to the snoop filter. (Count)
system.membus.snoop_filter.hitSingleRequests            0                       # Number of requests hitting in the snoop filter with a single holder of the requested data. (Count)
system.membus.snoop_filter.hitMultiRequests            0                       # Number of requests hitting in the snoop filter with multiple (>1) holders of the requested data. (Count)
system.membus.snoop_filter.totSnoops                0                       # Total number of snoops made to the snoop filter. (Count)
system.membus.snoop_filter.hitSingleSnoops            0                       # Number of snoops hitting in the snoop filter with a single holder of the requested data. (Count)
system.membus.snoop_filter.hitMultiSnoops            0                       # Number of snoops hitting in the snoop filter with multiple (>1) holders of the requested data. (Count)
system.voltage_domain.voltage                3.300000                       # Voltage in Volts (Volt)
system.workload.inst.arm                            0                       # number of arm instructions executed (Count)
system.workload.inst.quiesce                        0                       # number of quiesce instructions executed (Count)
system.cpu_cluster.cpus.idleCycles             252119                       # Total number of cycles that the object has spent stopped (Unspecified)
system.cpu_cluster.cpus.tickCycles              93188                       # Number of cycles that the object actually ticked (Unspecified)

---------- End Simulation Statistics   ----------
